! Program Version,EnergyPlus, Version 8.9.0-eba93e8e1b, YMD=2018.07.12 10:19,
! Output:Meter Objects (applicable to this run)
Output:Meter,Electricity:Facility,hourly; !- [J]
Output:Meter:Cumulative,Electricity:Facility,hourly; !- [J]
Output:Meter,Electricity:Building,hourly; !- [J]
Output:Meter:Cumulative,Electricity:Building,hourly; !- [J]
Output:Meter,Electricity:Zone:DATACENTER_BOT_ZN_6 ZN,hourly; !- [J]
Output:Meter:Cumulative,Electricity:Zone:DATACENTER_BOT_ZN_6 ZN,hourly; !- [J]
Output:Meter,InteriorLights:Electricity,hourly; !- [J]
Output:Meter:Cumulative,InteriorLights:Electricity,hourly; !- [J]
Output:Meter,InteriorLights:Electricity:Zone:DATACENTER_BOT_ZN_6 ZN,hourly; !- [J]
Output:Meter:Cumulative,InteriorLights:Electricity:Zone:DATACENTER_BOT_ZN_6 ZN,hourly; !- [J]
Output:Meter,General:InteriorLights:Electricity,hourly; !- [J]
Output:Meter:Cumulative,General:InteriorLights:Electricity,hourly; !- [J]
Output:Meter,Electricity:Zone:DATACENTER_MID_ZN_6 ZN,hourly; !- [J]
Output:Meter:Cumulative,Electricity:Zone:DATACENTER_MID_ZN_6 ZN,hourly; !- [J]
Output:Meter,InteriorLights:Electricity:Zone:DATACENTER_MID_ZN_6 ZN,hourly; !- [J]
Output:Meter:Cumulative,InteriorLights:Electricity:Zone:DATACENTER_MID_ZN_6 ZN,hourly; !- [J]
Output:Meter,Electricity:Zone:DATACENTER_TOP_ZN_6 ZN,hourly; !- [J]
Output:Meter:Cumulative,Electricity:Zone:DATACENTER_TOP_ZN_6 ZN,hourly; !- [J]
Output:Meter,InteriorLights:Electricity:Zone:DATACENTER_TOP_ZN_6 ZN,hourly; !- [J]
Output:Meter:Cumulative,InteriorLights:Electricity:Zone:DATACENTER_TOP_ZN_6 ZN,hourly; !- [J]
Output:Meter,Electricity:Zone:DATACENTER_BASEMENT_ZN_6 ZN,hourly; !- [J]
Output:Meter:Cumulative,Electricity:Zone:DATACENTER_BASEMENT_ZN_6 ZN,hourly; !- [J]
Output:Meter,InteriorLights:Electricity:Zone:DATACENTER_BASEMENT_ZN_6 ZN,hourly; !- [J]
Output:Meter:Cumulative,InteriorLights:Electricity:Zone:DATACENTER_BASEMENT_ZN_6 ZN,hourly; !- [J]
Output:Meter,Electricity:Zone:BASEMENT ZN,hourly; !- [J]
Output:Meter:Cumulative,Electricity:Zone:BASEMENT ZN,hourly; !- [J]
Output:Meter,InteriorLights:Electricity:Zone:BASEMENT ZN,hourly; !- [J]
Output:Meter:Cumulative,InteriorLights:Electricity:Zone:BASEMENT ZN,hourly; !- [J]
Output:Meter,Electricity:Zone:CORE_BOTTOM ZN,hourly; !- [J]
Output:Meter:Cumulative,Electricity:Zone:CORE_BOTTOM ZN,hourly; !- [J]
Output:Meter,InteriorLights:Electricity:Zone:CORE_BOTTOM ZN,hourly; !- [J]
Output:Meter:Cumulative,InteriorLights:Electricity:Zone:CORE_BOTTOM ZN,hourly; !- [J]
Output:Meter,Electricity:Zone:CORE_MID ZN,hourly; !- [J]
Output:Meter:Cumulative,Electricity:Zone:CORE_MID ZN,hourly; !- [J]
Output:Meter,InteriorLights:Electricity:Zone:CORE_MID ZN,hourly; !- [J]
Output:Meter:Cumulative,InteriorLights:Electricity:Zone:CORE_MID ZN,hourly; !- [J]
Output:Meter,Electricity:Zone:CORE_TOP ZN,hourly; !- [J]
Output:Meter:Cumulative,Electricity:Zone:CORE_TOP ZN,hourly; !- [J]
Output:Meter,InteriorLights:Electricity:Zone:CORE_TOP ZN,hourly; !- [J]
Output:Meter:Cumulative,InteriorLights:Electricity:Zone:CORE_TOP ZN,hourly; !- [J]
Output:Meter,Electricity:Zone:PERIMETER_BOT_ZN_1 ZN,hourly; !- [J]
Output:Meter:Cumulative,Electricity:Zone:PERIMETER_BOT_ZN_1 ZN,hourly; !- [J]
Output:Meter,InteriorLights:Electricity:Zone:PERIMETER_BOT_ZN_1 ZN,hourly; !- [J]
Output:Meter:Cumulative,InteriorLights:Electricity:Zone:PERIMETER_BOT_ZN_1 ZN,hourly; !- [J]
Output:Meter,Electricity:Zone:PERIMETER_BOT_ZN_2 ZN,hourly; !- [J]
Output:Meter:Cumulative,Electricity:Zone:PERIMETER_BOT_ZN_2 ZN,hourly; !- [J]
Output:Meter,InteriorLights:Electricity:Zone:PERIMETER_BOT_ZN_2 ZN,hourly; !- [J]
Output:Meter:Cumulative,InteriorLights:Electricity:Zone:PERIMETER_BOT_ZN_2 ZN,hourly; !- [J]
Output:Meter,Electricity:Zone:PERIMETER_BOT_ZN_3 ZN,hourly; !- [J]
Output:Meter:Cumulative,Electricity:Zone:PERIMETER_BOT_ZN_3 ZN,hourly; !- [J]
Output:Meter,InteriorLights:Electricity:Zone:PERIMETER_BOT_ZN_3 ZN,hourly; !- [J]
Output:Meter:Cumulative,InteriorLights:Electricity:Zone:PERIMETER_BOT_ZN_3 ZN,hourly; !- [J]
Output:Meter,Electricity:Zone:PERIMETER_BOT_ZN_4 ZN,hourly; !- [J]
Output:Meter:Cumulative,Electricity:Zone:PERIMETER_BOT_ZN_4 ZN,hourly; !- [J]
Output:Meter,InteriorLights:Electricity:Zone:PERIMETER_BOT_ZN_4 ZN,hourly; !- [J]
Output:Meter:Cumulative,InteriorLights:Electricity:Zone:PERIMETER_BOT_ZN_4 ZN,hourly; !- [J]
Output:Meter,Electricity:Zone:PERIMETER_MID_ZN_1 ZN,hourly; !- [J]
Output:Meter:Cumulative,Electricity:Zone:PERIMETER_MID_ZN_1 ZN,hourly; !- [J]
Output:Meter,InteriorLights:Electricity:Zone:PERIMETER_MID_ZN_1 ZN,hourly; !- [J]
Output:Meter:Cumulative,InteriorLights:Electricity:Zone:PERIMETER_MID_ZN_1 ZN,hourly; !- [J]
Output:Meter,Electricity:Zone:PERIMETER_MID_ZN_2 ZN,hourly; !- [J]
Output:Meter:Cumulative,Electricity:Zone:PERIMETER_MID_ZN_2 ZN,hourly; !- [J]
Output:Meter,InteriorLights:Electricity:Zone:PERIMETER_MID_ZN_2 ZN,hourly; !- [J]
Output:Meter:Cumulative,InteriorLights:Electricity:Zone:PERIMETER_MID_ZN_2 ZN,hourly; !- [J]
Output:Meter,Electricity:Zone:PERIMETER_MID_ZN_3 ZN,hourly; !- [J]
Output:Meter:Cumulative,Electricity:Zone:PERIMETER_MID_ZN_3 ZN,hourly; !- [J]
Output:Meter,InteriorLights:Electricity:Zone:PERIMETER_MID_ZN_3 ZN,hourly; !- [J]
Output:Meter:Cumulative,InteriorLights:Electricity:Zone:PERIMETER_MID_ZN_3 ZN,hourly; !- [J]
Output:Meter,Electricity:Zone:PERIMETER_MID_ZN_4 ZN,hourly; !- [J]
Output:Meter:Cumulative,Electricity:Zone:PERIMETER_MID_ZN_4 ZN,hourly; !- [J]
Output:Meter,InteriorLights:Electricity:Zone:PERIMETER_MID_ZN_4 ZN,hourly; !- [J]
Output:Meter:Cumulative,InteriorLights:Electricity:Zone:PERIMETER_MID_ZN_4 ZN,hourly; !- [J]
Output:Meter,Electricity:Zone:PERIMETER_TOP_ZN_1 ZN,hourly; !- [J]
Output:Meter:Cumulative,Electricity:Zone:PERIMETER_TOP_ZN_1 ZN,hourly; !- [J]
Output:Meter,InteriorLights:Electricity:Zone:PERIMETER_TOP_ZN_1 ZN,hourly; !- [J]
Output:Meter:Cumulative,InteriorLights:Electricity:Zone:PERIMETER_TOP_ZN_1 ZN,hourly; !- [J]
Output:Meter,Electricity:Zone:PERIMETER_TOP_ZN_2 ZN,hourly; !- [J]
Output:Meter:Cumulative,Electricity:Zone:PERIMETER_TOP_ZN_2 ZN,hourly; !- [J]
Output:Meter,InteriorLights:Electricity:Zone:PERIMETER_TOP_ZN_2 ZN,hourly; !- [J]
Output:Meter:Cumulative,InteriorLights:Electricity:Zone:PERIMETER_TOP_ZN_2 ZN,hourly; !- [J]
Output:Meter,Electricity:Zone:PERIMETER_TOP_ZN_3 ZN,hourly; !- [J]
Output:Meter:Cumulative,Electricity:Zone:PERIMETER_TOP_ZN_3 ZN,hourly; !- [J]
Output:Meter,InteriorLights:Electricity:Zone:PERIMETER_TOP_ZN_3 ZN,hourly; !- [J]
Output:Meter:Cumulative,InteriorLights:Electricity:Zone:PERIMETER_TOP_ZN_3 ZN,hourly; !- [J]
Output:Meter,Electricity:Zone:PERIMETER_TOP_ZN_4 ZN,hourly; !- [J]
Output:Meter:Cumulative,Electricity:Zone:PERIMETER_TOP_ZN_4 ZN,hourly; !- [J]
Output:Meter,InteriorLights:Electricity:Zone:PERIMETER_TOP_ZN_4 ZN,hourly; !- [J]
Output:Meter:Cumulative,InteriorLights:Electricity:Zone:PERIMETER_TOP_ZN_4 ZN,hourly; !- [J]
Output:Meter,InteriorEquipment:Electricity,hourly; !- [J]
Output:Meter:Cumulative,InteriorEquipment:Electricity,hourly; !- [J]
Output:Meter,InteriorEquipment:Electricity:Zone:DATACENTER_BOT_ZN_6 ZN,hourly; !- [J]
Output:Meter:Cumulative,InteriorEquipment:Electricity:Zone:DATACENTER_BOT_ZN_6 ZN,hourly; !- [J]
Output:Meter,General:InteriorEquipment:Electricity,hourly; !- [J]
Output:Meter:Cumulative,General:InteriorEquipment:Electricity,hourly; !- [J]
Output:Meter,InteriorEquipment:Electricity:Zone:DATACENTER_MID_ZN_6 ZN,hourly; !- [J]
Output:Meter:Cumulative,InteriorEquipment:Electricity:Zone:DATACENTER_MID_ZN_6 ZN,hourly; !- [J]
Output:Meter,InteriorEquipment:Electricity:Zone:DATACENTER_TOP_ZN_6 ZN,hourly; !- [J]
Output:Meter:Cumulative,InteriorEquipment:Electricity:Zone:DATACENTER_TOP_ZN_6 ZN,hourly; !- [J]
Output:Meter,InteriorEquipment:Electricity:Zone:DATACENTER_BASEMENT_ZN_6 ZN,hourly; !- [J]
Output:Meter:Cumulative,InteriorEquipment:Electricity:Zone:DATACENTER_BASEMENT_ZN_6 ZN,hourly; !- [J]
Output:Meter,InteriorEquipment:Electricity:Zone:BASEMENT ZN,hourly; !- [J]
Output:Meter:Cumulative,InteriorEquipment:Electricity:Zone:BASEMENT ZN,hourly; !- [J]
Output:Meter,InteriorEquipment:Electricity:Zone:CORE_BOTTOM ZN,hourly; !- [J]
Output:Meter:Cumulative,InteriorEquipment:Electricity:Zone:CORE_BOTTOM ZN,hourly; !- [J]
Output:Meter,InteriorEquipment:Electricity:Zone:CORE_MID ZN,hourly; !- [J]
Output:Meter:Cumulative,InteriorEquipment:Electricity:Zone:CORE_MID ZN,hourly; !- [J]
Output:Meter,InteriorEquipment:Electricity:Zone:CORE_TOP ZN,hourly; !- [J]
Output:Meter:Cumulative,InteriorEquipment:Electricity:Zone:CORE_TOP ZN,hourly; !- [J]
Output:Meter,InteriorEquipment:Electricity:Zone:PERIMETER_BOT_ZN_1 ZN,hourly; !- [J]
Output:Meter:Cumulative,InteriorEquipment:Electricity:Zone:PERIMETER_BOT_ZN_1 ZN,hourly; !- [J]
Output:Meter,InteriorEquipment:Electricity:Zone:PERIMETER_BOT_ZN_2 ZN,hourly; !- [J]
Output:Meter:Cumulative,InteriorEquipment:Electricity:Zone:PERIMETER_BOT_ZN_2 ZN,hourly; !- [J]
Output:Meter,InteriorEquipment:Electricity:Zone:PERIMETER_BOT_ZN_3 ZN,hourly; !- [J]
Output:Meter:Cumulative,InteriorEquipment:Electricity:Zone:PERIMETER_BOT_ZN_3 ZN,hourly; !- [J]
Output:Meter,InteriorEquipment:Electricity:Zone:PERIMETER_BOT_ZN_4 ZN,hourly; !- [J]
Output:Meter:Cumulative,InteriorEquipment:Electricity:Zone:PERIMETER_BOT_ZN_4 ZN,hourly; !- [J]
Output:Meter,InteriorEquipment:Electricity:Zone:PERIMETER_MID_ZN_1 ZN,hourly; !- [J]
Output:Meter:Cumulative,InteriorEquipment:Electricity:Zone:PERIMETER_MID_ZN_1 ZN,hourly; !- [J]
Output:Meter,InteriorEquipment:Electricity:Zone:PERIMETER_MID_ZN_2 ZN,hourly; !- [J]
Output:Meter:Cumulative,InteriorEquipment:Electricity:Zone:PERIMETER_MID_ZN_2 ZN,hourly; !- [J]
Output:Meter,InteriorEquipment:Electricity:Zone:PERIMETER_MID_ZN_3 ZN,hourly; !- [J]
Output:Meter:Cumulative,InteriorEquipment:Electricity:Zone:PERIMETER_MID_ZN_3 ZN,hourly; !- [J]
Output:Meter,InteriorEquipment:Electricity:Zone:PERIMETER_MID_ZN_4 ZN,hourly; !- [J]
Output:Meter:Cumulative,InteriorEquipment:Electricity:Zone:PERIMETER_MID_ZN_4 ZN,hourly; !- [J]
Output:Meter,InteriorEquipment:Electricity:Zone:PERIMETER_TOP_ZN_1 ZN,hourly; !- [J]
Output:Meter:Cumulative,InteriorEquipment:Electricity:Zone:PERIMETER_TOP_ZN_1 ZN,hourly; !- [J]
Output:Meter,InteriorEquipment:Electricity:Zone:PERIMETER_TOP_ZN_2 ZN,hourly; !- [J]
Output:Meter:Cumulative,InteriorEquipment:Electricity:Zone:PERIMETER_TOP_ZN_2 ZN,hourly; !- [J]
Output:Meter,InteriorEquipment:Electricity:Zone:PERIMETER_TOP_ZN_3 ZN,hourly; !- [J]
Output:Meter:Cumulative,InteriorEquipment:Electricity:Zone:PERIMETER_TOP_ZN_3 ZN,hourly; !- [J]
Output:Meter,InteriorEquipment:Electricity:Zone:PERIMETER_TOP_ZN_4 ZN,hourly; !- [J]
Output:Meter:Cumulative,InteriorEquipment:Electricity:Zone:PERIMETER_TOP_ZN_4 ZN,hourly; !- [J]
Output:Meter,PlantLoopHeatingDemand:Facility,hourly; !- [J]
Output:Meter:Cumulative,PlantLoopHeatingDemand:Facility,hourly; !- [J]
Output:Meter,PlantLoopHeatingDemand:Plant,hourly; !- [J]
Output:Meter:Cumulative,PlantLoopHeatingDemand:Plant,hourly; !- [J]
Output:Meter,WaterSystems:PlantLoopHeatingDemand,hourly; !- [J]
Output:Meter:Cumulative,WaterSystems:PlantLoopHeatingDemand,hourly; !- [J]
Output:Meter,General:WaterSystems:PlantLoopHeatingDemand,hourly; !- [J]
Output:Meter:Cumulative,General:WaterSystems:PlantLoopHeatingDemand,hourly; !- [J]
Output:Meter,Gas:Facility,hourly; !- [J]
Output:Meter:Cumulative,Gas:Facility,hourly; !- [J]
Output:Meter,Gas:Plant,hourly; !- [J]
Output:Meter:Cumulative,Gas:Plant,hourly; !- [J]
Output:Meter,WaterSystems:Gas,hourly; !- [J]
Output:Meter:Cumulative,WaterSystems:Gas,hourly; !- [J]
Output:Meter,General:WaterSystems:Gas,hourly; !- [J]
Output:Meter:Cumulative,General:WaterSystems:Gas,hourly; !- [J]
Output:Meter,Water:Facility,hourly; !- [m3]
Output:Meter:Cumulative,Water:Facility,hourly; !- [m3]
Output:Meter,Water:Plant,hourly; !- [m3]
Output:Meter:Cumulative,Water:Plant,hourly; !- [m3]
Output:Meter,WaterSystems:Water,hourly; !- [m3]
Output:Meter:Cumulative,WaterSystems:Water,hourly; !- [m3]
Output:Meter,General:WaterSystems:Water,hourly; !- [m3]
Output:Meter:Cumulative,General:WaterSystems:Water,hourly; !- [m3]
Output:Meter,MainsWater:Facility,hourly; !- [m3]
Output:Meter:Cumulative,MainsWater:Facility,hourly; !- [m3]
Output:Meter,MainsWater:Plant,hourly; !- [m3]
Output:Meter:Cumulative,MainsWater:Plant,hourly; !- [m3]
Output:Meter,WaterSystems:MainsWater,hourly; !- [m3]
Output:Meter:Cumulative,WaterSystems:MainsWater,hourly; !- [m3]
Output:Meter,General:WaterSystems:MainsWater,hourly; !- [m3]
Output:Meter:Cumulative,General:WaterSystems:MainsWater,hourly; !- [m3]
Output:Meter,EnergyTransfer:Facility,hourly; !- [J]
Output:Meter:Cumulative,EnergyTransfer:Facility,hourly; !- [J]
Output:Meter,EnergyTransfer:Building,hourly; !- [J]
Output:Meter:Cumulative,EnergyTransfer:Building,hourly; !- [J]
Output:Meter,EnergyTransfer:Zone:BASEMENT ZN,hourly; !- [J]
Output:Meter:Cumulative,EnergyTransfer:Zone:BASEMENT ZN,hourly; !- [J]
Output:Meter,Heating:EnergyTransfer,hourly; !- [J]
Output:Meter:Cumulative,Heating:EnergyTransfer,hourly; !- [J]
Output:Meter,Heating:EnergyTransfer:Zone:BASEMENT ZN,hourly; !- [J]
Output:Meter:Cumulative,Heating:EnergyTransfer:Zone:BASEMENT ZN,hourly; !- [J]
Output:Meter,Cooling:EnergyTransfer,hourly; !- [J]
Output:Meter:Cumulative,Cooling:EnergyTransfer,hourly; !- [J]
Output:Meter,Cooling:EnergyTransfer:Zone:BASEMENT ZN,hourly; !- [J]
Output:Meter:Cumulative,Cooling:EnergyTransfer:Zone:BASEMENT ZN,hourly; !- [J]
Output:Meter,EnergyTransfer:Zone:CORE_BOTTOM ZN,hourly; !- [J]
Output:Meter:Cumulative,EnergyTransfer:Zone:CORE_BOTTOM ZN,hourly; !- [J]
Output:Meter,Heating:EnergyTransfer:Zone:CORE_BOTTOM ZN,hourly; !- [J]
Output:Meter:Cumulative,Heating:EnergyTransfer:Zone:CORE_BOTTOM ZN,hourly; !- [J]
Output:Meter,Cooling:EnergyTransfer:Zone:CORE_BOTTOM ZN,hourly; !- [J]
Output:Meter:Cumulative,Cooling:EnergyTransfer:Zone:CORE_BOTTOM ZN,hourly; !- [J]
Output:Meter,EnergyTransfer:Zone:CORE_MID ZN,hourly; !- [J]
Output:Meter:Cumulative,EnergyTransfer:Zone:CORE_MID ZN,hourly; !- [J]
Output:Meter,Heating:EnergyTransfer:Zone:CORE_MID ZN,hourly; !- [J]
Output:Meter:Cumulative,Heating:EnergyTransfer:Zone:CORE_MID ZN,hourly; !- [J]
Output:Meter,Cooling:EnergyTransfer:Zone:CORE_MID ZN,hourly; !- [J]
Output:Meter:Cumulative,Cooling:EnergyTransfer:Zone:CORE_MID ZN,hourly; !- [J]
Output:Meter,EnergyTransfer:Zone:CORE_TOP ZN,hourly; !- [J]
Output:Meter:Cumulative,EnergyTransfer:Zone:CORE_TOP ZN,hourly; !- [J]
Output:Meter,Heating:EnergyTransfer:Zone:CORE_TOP ZN,hourly; !- [J]
Output:Meter:Cumulative,Heating:EnergyTransfer:Zone:CORE_TOP ZN,hourly; !- [J]
Output:Meter,Cooling:EnergyTransfer:Zone:CORE_TOP ZN,hourly; !- [J]
Output:Meter:Cumulative,Cooling:EnergyTransfer:Zone:CORE_TOP ZN,hourly; !- [J]
Output:Meter,EnergyTransfer:Zone:DATACENTER_BASEMENT_ZN_6 ZN,hourly; !- [J]
Output:Meter:Cumulative,EnergyTransfer:Zone:DATACENTER_BASEMENT_ZN_6 ZN,hourly; !- [J]
Output:Meter,Heating:EnergyTransfer:Zone:DATACENTER_BASEMENT_ZN_6 ZN,hourly; !- [J]
Output:Meter:Cumulative,Heating:EnergyTransfer:Zone:DATACENTER_BASEMENT_ZN_6 ZN,hourly; !- [J]
Output:Meter,Cooling:EnergyTransfer:Zone:DATACENTER_BASEMENT_ZN_6 ZN,hourly; !- [J]
Output:Meter:Cumulative,Cooling:EnergyTransfer:Zone:DATACENTER_BASEMENT_ZN_6 ZN,hourly; !- [J]
Output:Meter,EnergyTransfer:Zone:DATACENTER_BOT_ZN_6 ZN,hourly; !- [J]
Output:Meter:Cumulative,EnergyTransfer:Zone:DATACENTER_BOT_ZN_6 ZN,hourly; !- [J]
Output:Meter,Heating:EnergyTransfer:Zone:DATACENTER_BOT_ZN_6 ZN,hourly; !- [J]
Output:Meter:Cumulative,Heating:EnergyTransfer:Zone:DATACENTER_BOT_ZN_6 ZN,hourly; !- [J]
Output:Meter,Cooling:EnergyTransfer:Zone:DATACENTER_BOT_ZN_6 ZN,hourly; !- [J]
Output:Meter:Cumulative,Cooling:EnergyTransfer:Zone:DATACENTER_BOT_ZN_6 ZN,hourly; !- [J]
Output:Meter,EnergyTransfer:Zone:DATACENTER_MID_ZN_6 ZN,hourly; !- [J]
Output:Meter:Cumulative,EnergyTransfer:Zone:DATACENTER_MID_ZN_6 ZN,hourly; !- [J]
Output:Meter,Heating:EnergyTransfer:Zone:DATACENTER_MID_ZN_6 ZN,hourly; !- [J]
Output:Meter:Cumulative,Heating:EnergyTransfer:Zone:DATACENTER_MID_ZN_6 ZN,hourly; !- [J]
Output:Meter,Cooling:EnergyTransfer:Zone:DATACENTER_MID_ZN_6 ZN,hourly; !- [J]
Output:Meter:Cumulative,Cooling:EnergyTransfer:Zone:DATACENTER_MID_ZN_6 ZN,hourly; !- [J]
Output:Meter,EnergyTransfer:Zone:DATACENTER_TOP_ZN_6 ZN,hourly; !- [J]
Output:Meter:Cumulative,EnergyTransfer:Zone:DATACENTER_TOP_ZN_6 ZN,hourly; !- [J]
Output:Meter,Heating:EnergyTransfer:Zone:DATACENTER_TOP_ZN_6 ZN,hourly; !- [J]
Output:Meter:Cumulative,Heating:EnergyTransfer:Zone:DATACENTER_TOP_ZN_6 ZN,hourly; !- [J]
Output:Meter,Cooling:EnergyTransfer:Zone:DATACENTER_TOP_ZN_6 ZN,hourly; !- [J]
Output:Meter:Cumulative,Cooling:EnergyTransfer:Zone:DATACENTER_TOP_ZN_6 ZN,hourly; !- [J]
Output:Meter,EnergyTransfer:Zone:GROUNDFLOOR_PLENUM ZN,hourly; !- [J]
Output:Meter:Cumulative,EnergyTransfer:Zone:GROUNDFLOOR_PLENUM ZN,hourly; !- [J]
Output:Meter,Heating:EnergyTransfer:Zone:GROUNDFLOOR_PLENUM ZN,hourly; !- [J]
Output:Meter:Cumulative,Heating:EnergyTransfer:Zone:GROUNDFLOOR_PLENUM ZN,hourly; !- [J]
Output:Meter,Cooling:EnergyTransfer:Zone:GROUNDFLOOR_PLENUM ZN,hourly; !- [J]
Output:Meter:Cumulative,Cooling:EnergyTransfer:Zone:GROUNDFLOOR_PLENUM ZN,hourly; !- [J]
Output:Meter,EnergyTransfer:Zone:MIDFLOOR_PLENUM ZN,hourly; !- [J]
Output:Meter:Cumulative,EnergyTransfer:Zone:MIDFLOOR_PLENUM ZN,hourly; !- [J]
Output:Meter,Heating:EnergyTransfer:Zone:MIDFLOOR_PLENUM ZN,hourly; !- [J]
Output:Meter:Cumulative,Heating:EnergyTransfer:Zone:MIDFLOOR_PLENUM ZN,hourly; !- [J]
Output:Meter,Cooling:EnergyTransfer:Zone:MIDFLOOR_PLENUM ZN,hourly; !- [J]
Output:Meter:Cumulative,Cooling:EnergyTransfer:Zone:MIDFLOOR_PLENUM ZN,hourly; !- [J]
Output:Meter,EnergyTransfer:Zone:PERIMETER_BOT_ZN_1 ZN,hourly; !- [J]
Output:Meter:Cumulative,EnergyTransfer:Zone:PERIMETER_BOT_ZN_1 ZN,hourly; !- [J]
Output:Meter,Heating:EnergyTransfer:Zone:PERIMETER_BOT_ZN_1 ZN,hourly; !- [J]
Output:Meter:Cumulative,Heating:EnergyTransfer:Zone:PERIMETER_BOT_ZN_1 ZN,hourly; !- [J]
Output:Meter,Cooling:EnergyTransfer:Zone:PERIMETER_BOT_ZN_1 ZN,hourly; !- [J]
Output:Meter:Cumulative,Cooling:EnergyTransfer:Zone:PERIMETER_BOT_ZN_1 ZN,hourly; !- [J]
Output:Meter,EnergyTransfer:Zone:PERIMETER_BOT_ZN_2 ZN,hourly; !- [J]
Output:Meter:Cumulative,EnergyTransfer:Zone:PERIMETER_BOT_ZN_2 ZN,hourly; !- [J]
Output:Meter,Heating:EnergyTransfer:Zone:PERIMETER_BOT_ZN_2 ZN,hourly; !- [J]
Output:Meter:Cumulative,Heating:EnergyTransfer:Zone:PERIMETER_BOT_ZN_2 ZN,hourly; !- [J]
Output:Meter,Cooling:EnergyTransfer:Zone:PERIMETER_BOT_ZN_2 ZN,hourly; !- [J]
Output:Meter:Cumulative,Cooling:EnergyTransfer:Zone:PERIMETER_BOT_ZN_2 ZN,hourly; !- [J]
Output:Meter,EnergyTransfer:Zone:PERIMETER_BOT_ZN_3 ZN,hourly; !- [J]
Output:Meter:Cumulative,EnergyTransfer:Zone:PERIMETER_BOT_ZN_3 ZN,hourly; !- [J]
Output:Meter,Heating:EnergyTransfer:Zone:PERIMETER_BOT_ZN_3 ZN,hourly; !- [J]
Output:Meter:Cumulative,Heating:EnergyTransfer:Zone:PERIMETER_BOT_ZN_3 ZN,hourly; !- [J]
Output:Meter,Cooling:EnergyTransfer:Zone:PERIMETER_BOT_ZN_3 ZN,hourly; !- [J]
Output:Meter:Cumulative,Cooling:EnergyTransfer:Zone:PERIMETER_BOT_ZN_3 ZN,hourly; !- [J]
Output:Meter,EnergyTransfer:Zone:PERIMETER_BOT_ZN_4 ZN,hourly; !- [J]
Output:Meter:Cumulative,EnergyTransfer:Zone:PERIMETER_BOT_ZN_4 ZN,hourly; !- [J]
Output:Meter,Heating:EnergyTransfer:Zone:PERIMETER_BOT_ZN_4 ZN,hourly; !- [J]
Output:Meter:Cumulative,Heating:EnergyTransfer:Zone:PERIMETER_BOT_ZN_4 ZN,hourly; !- [J]
Output:Meter,Cooling:EnergyTransfer:Zone:PERIMETER_BOT_ZN_4 ZN,hourly; !- [J]
Output:Meter:Cumulative,Cooling:EnergyTransfer:Zone:PERIMETER_BOT_ZN_4 ZN,hourly; !- [J]
Output:Meter,EnergyTransfer:Zone:PERIMETER_MID_ZN_1 ZN,hourly; !- [J]
Output:Meter:Cumulative,EnergyTransfer:Zone:PERIMETER_MID_ZN_1 ZN,hourly; !- [J]
Output:Meter,Heating:EnergyTransfer:Zone:PERIMETER_MID_ZN_1 ZN,hourly; !- [J]
Output:Meter:Cumulative,Heating:EnergyTransfer:Zone:PERIMETER_MID_ZN_1 ZN,hourly; !- [J]
Output:Meter,Cooling:EnergyTransfer:Zone:PERIMETER_MID_ZN_1 ZN,hourly; !- [J]
Output:Meter:Cumulative,Cooling:EnergyTransfer:Zone:PERIMETER_MID_ZN_1 ZN,hourly; !- [J]
Output:Meter,EnergyTransfer:Zone:PERIMETER_MID_ZN_2 ZN,hourly; !- [J]
Output:Meter:Cumulative,EnergyTransfer:Zone:PERIMETER_MID_ZN_2 ZN,hourly; !- [J]
Output:Meter,Heating:EnergyTransfer:Zone:PERIMETER_MID_ZN_2 ZN,hourly; !- [J]
Output:Meter:Cumulative,Heating:EnergyTransfer:Zone:PERIMETER_MID_ZN_2 ZN,hourly; !- [J]
Output:Meter,Cooling:EnergyTransfer:Zone:PERIMETER_MID_ZN_2 ZN,hourly; !- [J]
Output:Meter:Cumulative,Cooling:EnergyTransfer:Zone:PERIMETER_MID_ZN_2 ZN,hourly; !- [J]
Output:Meter,EnergyTransfer:Zone:PERIMETER_MID_ZN_3 ZN,hourly; !- [J]
Output:Meter:Cumulative,EnergyTransfer:Zone:PERIMETER_MID_ZN_3 ZN,hourly; !- [J]
Output:Meter,Heating:EnergyTransfer:Zone:PERIMETER_MID_ZN_3 ZN,hourly; !- [J]
Output:Meter:Cumulative,Heating:EnergyTransfer:Zone:PERIMETER_MID_ZN_3 ZN,hourly; !- [J]
Output:Meter,Cooling:EnergyTransfer:Zone:PERIMETER_MID_ZN_3 ZN,hourly; !- [J]
Output:Meter:Cumulative,Cooling:EnergyTransfer:Zone:PERIMETER_MID_ZN_3 ZN,hourly; !- [J]
Output:Meter,EnergyTransfer:Zone:PERIMETER_MID_ZN_4 ZN,hourly; !- [J]
Output:Meter:Cumulative,EnergyTransfer:Zone:PERIMETER_MID_ZN_4 ZN,hourly; !- [J]
Output:Meter,Heating:EnergyTransfer:Zone:PERIMETER_MID_ZN_4 ZN,hourly; !- [J]
Output:Meter:Cumulative,Heating:EnergyTransfer:Zone:PERIMETER_MID_ZN_4 ZN,hourly; !- [J]
Output:Meter,Cooling:EnergyTransfer:Zone:PERIMETER_MID_ZN_4 ZN,hourly; !- [J]
Output:Meter:Cumulative,Cooling:EnergyTransfer:Zone:PERIMETER_MID_ZN_4 ZN,hourly; !- [J]
Output:Meter,EnergyTransfer:Zone:PERIMETER_TOP_ZN_1 ZN,hourly; !- [J]
Output:Meter:Cumulative,EnergyTransfer:Zone:PERIMETER_TOP_ZN_1 ZN,hourly; !- [J]
Output:Meter,Heating:EnergyTransfer:Zone:PERIMETER_TOP_ZN_1 ZN,hourly; !- [J]
Output:Meter:Cumulative,Heating:EnergyTransfer:Zone:PERIMETER_TOP_ZN_1 ZN,hourly; !- [J]
Output:Meter,Cooling:EnergyTransfer:Zone:PERIMETER_TOP_ZN_1 ZN,hourly; !- [J]
Output:Meter:Cumulative,Cooling:EnergyTransfer:Zone:PERIMETER_TOP_ZN_1 ZN,hourly; !- [J]
Output:Meter,EnergyTransfer:Zone:PERIMETER_TOP_ZN_2 ZN,hourly; !- [J]
Output:Meter:Cumulative,EnergyTransfer:Zone:PERIMETER_TOP_ZN_2 ZN,hourly; !- [J]
Output:Meter,Heating:EnergyTransfer:Zone:PERIMETER_TOP_ZN_2 ZN,hourly; !- [J]
Output:Meter:Cumulative,Heating:EnergyTransfer:Zone:PERIMETER_TOP_ZN_2 ZN,hourly; !- [J]
Output:Meter,Cooling:EnergyTransfer:Zone:PERIMETER_TOP_ZN_2 ZN,hourly; !- [J]
Output:Meter:Cumulative,Cooling:EnergyTransfer:Zone:PERIMETER_TOP_ZN_2 ZN,hourly; !- [J]
Output:Meter,EnergyTransfer:Zone:PERIMETER_TOP_ZN_3 ZN,hourly; !- [J]
Output:Meter:Cumulative,EnergyTransfer:Zone:PERIMETER_TOP_ZN_3 ZN,hourly; !- [J]
Output:Meter,Heating:EnergyTransfer:Zone:PERIMETER_TOP_ZN_3 ZN,hourly; !- [J]
Output:Meter:Cumulative,Heating:EnergyTransfer:Zone:PERIMETER_TOP_ZN_3 ZN,hourly; !- [J]
Output:Meter,Cooling:EnergyTransfer:Zone:PERIMETER_TOP_ZN_3 ZN,hourly; !- [J]
Output:Meter:Cumulative,Cooling:EnergyTransfer:Zone:PERIMETER_TOP_ZN_3 ZN,hourly; !- [J]
Output:Meter,EnergyTransfer:Zone:PERIMETER_TOP_ZN_4 ZN,hourly; !- [J]
Output:Meter:Cumulative,EnergyTransfer:Zone:PERIMETER_TOP_ZN_4 ZN,hourly; !- [J]
Output:Meter,Heating:EnergyTransfer:Zone:PERIMETER_TOP_ZN_4 ZN,hourly; !- [J]
Output:Meter:Cumulative,Heating:EnergyTransfer:Zone:PERIMETER_TOP_ZN_4 ZN,hourly; !- [J]
Output:Meter,Cooling:EnergyTransfer:Zone:PERIMETER_TOP_ZN_4 ZN,hourly; !- [J]
Output:Meter:Cumulative,Cooling:EnergyTransfer:Zone:PERIMETER_TOP_ZN_4 ZN,hourly; !- [J]
Output:Meter,EnergyTransfer:Zone:TOPFLOOR_PLENUM ZN,hourly; !- [J]
Output:Meter:Cumulative,EnergyTransfer:Zone:TOPFLOOR_PLENUM ZN,hourly; !- [J]
Output:Meter,Heating:EnergyTransfer:Zone:TOPFLOOR_PLENUM ZN,hourly; !- [J]
Output:Meter:Cumulative,Heating:EnergyTransfer:Zone:TOPFLOOR_PLENUM ZN,hourly; !- [J]
Output:Meter,Cooling:EnergyTransfer:Zone:TOPFLOOR_PLENUM ZN,hourly; !- [J]
Output:Meter:Cumulative,Cooling:EnergyTransfer:Zone:TOPFLOOR_PLENUM ZN,hourly; !- [J]
Output:Meter,EnergyTransfer:Plant,hourly; !- [J]
Output:Meter:Cumulative,EnergyTransfer:Plant,hourly; !- [J]
Output:Meter,WaterSystems:EnergyTransfer,hourly; !- [J]
Output:Meter:Cumulative,WaterSystems:EnergyTransfer,hourly; !- [J]
Output:Meter,General:WaterSystems:EnergyTransfer,hourly; !- [J]
Output:Meter:Cumulative,General:WaterSystems:EnergyTransfer,hourly; !- [J]
Output:Meter,ElectricityPurchased:Facility,hourly; !- [J]
Output:Meter:Cumulative,ElectricityPurchased:Facility,hourly; !- [J]
Output:Meter,ElectricityPurchased:Plant,hourly; !- [J]
Output:Meter:Cumulative,ElectricityPurchased:Plant,hourly; !- [J]
Output:Meter,Cogeneration:ElectricityPurchased,hourly; !- [J]
Output:Meter:Cumulative,Cogeneration:ElectricityPurchased,hourly; !- [J]
Output:Meter,ElectricitySurplusSold:Facility,hourly; !- [J]
Output:Meter:Cumulative,ElectricitySurplusSold:Facility,hourly; !- [J]
Output:Meter,ElectricitySurplusSold:Plant,hourly; !- [J]
Output:Meter:Cumulative,ElectricitySurplusSold:Plant,hourly; !- [J]
Output:Meter,Cogeneration:ElectricitySurplusSold,hourly; !- [J]
Output:Meter:Cumulative,Cogeneration:ElectricitySurplusSold,hourly; !- [J]
Output:Meter,ElectricityNet:Facility,hourly; !- [J]
Output:Meter:Cumulative,ElectricityNet:Facility,hourly; !- [J]
Output:Meter,ElectricityNet:Plant,hourly; !- [J]
Output:Meter:Cumulative,ElectricityNet:Plant,hourly; !- [J]
Output:Meter,Cogeneration:ElectricityNet,hourly; !- [J]
Output:Meter:Cumulative,Cogeneration:ElectricityNet,hourly; !- [J]
Output:Meter,EnergyTransfer:HVAC,hourly; !- [J]
Output:Meter:Cumulative,EnergyTransfer:HVAC,hourly; !- [J]
Output:Meter,HeatingCoils:EnergyTransfer,hourly; !- [J]
Output:Meter:Cumulative,HeatingCoils:EnergyTransfer,hourly; !- [J]
Output:Meter,PlantLoopHeatingDemand:HVAC,hourly; !- [J]
Output:Meter:Cumulative,PlantLoopHeatingDemand:HVAC,hourly; !- [J]
Output:Meter,HeatingCoils:PlantLoopHeatingDemand,hourly; !- [J]
Output:Meter:Cumulative,HeatingCoils:PlantLoopHeatingDemand,hourly; !- [J]
Output:Meter,CoolingCoils:EnergyTransfer,hourly; !- [J]
Output:Meter:Cumulative,CoolingCoils:EnergyTransfer,hourly; !- [J]
Output:Meter,PlantLoopCoolingDemand:Facility,hourly; !- [J]
Output:Meter:Cumulative,PlantLoopCoolingDemand:Facility,hourly; !- [J]
Output:Meter,PlantLoopCoolingDemand:HVAC,hourly; !- [J]
Output:Meter:Cumulative,PlantLoopCoolingDemand:HVAC,hourly; !- [J]
Output:Meter,CoolingCoils:PlantLoopCoolingDemand,hourly; !- [J]
Output:Meter:Cumulative,CoolingCoils:PlantLoopCoolingDemand,hourly; !- [J]
Output:Meter,Electricity:HVAC,hourly; !- [J]
Output:Meter:Cumulative,Electricity:HVAC,hourly; !- [J]
Output:Meter,Fans:Electricity,hourly; !- [J]
Output:Meter:Cumulative,Fans:Electricity,hourly; !- [J]
Output:Meter,General:Fans:Electricity,hourly; !- [J]
Output:Meter:Cumulative,General:Fans:Electricity,hourly; !- [J]
Output:Meter,ExteriorLights:Electricity,hourly; !- [J]
Output:Meter:Cumulative,ExteriorLights:Electricity,hourly; !- [J]
Output:Meter,General:ExteriorLights:Electricity,hourly; !- [J]
Output:Meter:Cumulative,General:ExteriorLights:Electricity,hourly; !- [J]
Output:Meter,Cooling:Electricity,hourly; !- [J]
Output:Meter:Cumulative,Cooling:Electricity,hourly; !- [J]
Output:Meter,Heating:Electricity,hourly; !- [J]
Output:Meter:Cumulative,Heating:Electricity,hourly; !- [J]
Output:Meter,HeatRecoveryForHeating:EnergyTransfer,hourly; !- [J]
Output:Meter:Cumulative,HeatRecoveryForHeating:EnergyTransfer,hourly; !- [J]
Output:Meter,HeatRecoveryForCooling:EnergyTransfer,hourly; !- [J]
Output:Meter:Cumulative,HeatRecoveryForCooling:EnergyTransfer,hourly; !- [J]
Output:Meter,HeatRecovery:Electricity,hourly; !- [J]
Output:Meter:Cumulative,HeatRecovery:Electricity,hourly; !- [J]
Output:Meter,Electricity:Plant,hourly; !- [J]
Output:Meter:Cumulative,Electricity:Plant,hourly; !- [J]
Output:Meter,General:Cooling:Electricity,hourly; !- [J]
Output:Meter:Cumulative,General:Cooling:Electricity,hourly; !- [J]
Output:Meter,Chillers:EnergyTransfer,hourly; !- [J]
Output:Meter:Cumulative,Chillers:EnergyTransfer,hourly; !- [J]
Output:Meter,HeatRejection:EnergyTransfer,hourly; !- [J]
Output:Meter:Cumulative,HeatRejection:EnergyTransfer,hourly; !- [J]
Output:Meter,HeatRejection:Electricity,hourly; !- [J]
Output:Meter:Cumulative,HeatRejection:Electricity,hourly; !- [J]
Output:Meter,General:HeatRejection:Electricity,hourly; !- [J]
Output:Meter:Cumulative,General:HeatRejection:Electricity,hourly; !- [J]
Output:Meter,HeatRejection:Water,hourly; !- [m3]
Output:Meter:Cumulative,HeatRejection:Water,hourly; !- [m3]
Output:Meter,HeatRejection:MainsWater,hourly; !- [m3]
Output:Meter:Cumulative,HeatRejection:MainsWater,hourly; !- [m3]
Output:Meter,Boilers:EnergyTransfer,hourly; !- [J]
Output:Meter:Cumulative,Boilers:EnergyTransfer,hourly; !- [J]
Output:Meter,Heating:Gas,hourly; !- [J]
Output:Meter:Cumulative,Heating:Gas,hourly; !- [J]
Output:Meter,General:Heating:Gas,hourly; !- [J]
Output:Meter:Cumulative,General:Heating:Gas,hourly; !- [J]
Output:Meter,Boiler Parasitic:Heating:Electricity,hourly; !- [J]
Output:Meter:Cumulative,Boiler Parasitic:Heating:Electricity,hourly; !- [J]
Output:Meter,Pumps:Electricity,hourly; !- [J]
Output:Meter:Cumulative,Pumps:Electricity,hourly; !- [J]
Output:Meter,Carbon Equivalent:Facility,hourly; !- [kg]
Output:Meter:Cumulative,Carbon Equivalent:Facility,hourly; !- [kg]
Output:Meter,CarbonEquivalentEmissions:Carbon Equivalent,hourly; !- [kg]
Output:Meter:Cumulative,CarbonEquivalentEmissions:Carbon Equivalent,hourly; !- [kg]
