Program Version,EnergyPlus, Version 8.9.0-eba93e8e1b, YMD=2018.07.12 10:19
! This file shows details about the branches, nodes, and other
! elements of the flow connections.
! This file is intended for use in "debugging" potential problems
! that may also be detected by the program, but may be more easily
! identified by "eye".
! This file is also intended to support software which draws a
! schematic diagram of the HVAC system.
! ===============================================================
! #Nodes,<Number of Unique Nodes>
 #Nodes,332
! <Node>,<NodeNumber>,<Node Name>,<Node Fluid Type>,<# Times Node Referenced After Definition>
 Node,1,NODE 190,Air,4
 Node,2,NODE 105,Air,4
 Node,3,NODE 144,Air,4
 Node,4,NODE 183,Air,4
 Node,5,NODE 224,Air,4
 Node,6,NODE 237,Air,4
 Node,7,NODE 250,Air,4
 Node,8,NODE 263,Air,4
 Node,9,NODE 73,Air,4
 Node,10,NODE 90,Air,4
 Node,11,NODE 95,Air,4
 Node,12,NODE 100,Air,4
 Node,13,NODE 112,Air,4
 Node,14,NODE 129,Air,4
 Node,15,NODE 134,Air,4
 Node,16,NODE 139,Air,4
 Node,17,NODE 151,Air,4
 Node,18,NODE 168,Air,4
 Node,19,NODE 173,Air,4
 Node,20,NODE 178,Air,4
 Node,21,NODE 187,Air,10
 Node,22,NODE 188,Air,3
 Node,23,NODE 221,Air,6
 Node,24,NODE 222,Air,3
 Node,25,NODE 234,Air,6
 Node,26,NODE 235,Air,3
 Node,27,NODE 247,Air,6
 Node,28,NODE 248,Air,3
 Node,29,NODE 260,Air,6
 Node,30,NODE 261,Air,3
 Node,31,NODE 70,Air,10
 Node,32,NODE 71,Air,3
 Node,33,NODE 109,Air,10
 Node,34,NODE 110,Air,3
 Node,35,NODE 148,Air,10
 Node,36,NODE 149,Air,3
 Node,37,NODE 186,Air,3
 Node,38,NODE 199,Air,5
 Node,39,NODE 196,Air,5
 Node,40,NODE 191,Air,8
 Node,41,NODE 220,Air,3
 Node,42,NODE 231,Air,7
 Node,43,NODE 233,Air,3
 Node,44,NODE 244,Air,7
 Node,45,NODE 246,Air,3
 Node,46,NODE 257,Air,7
 Node,47,NODE 259,Air,3
 Node,48,NODE 270,Air,7
 Node,49,NODE 69,Air,3
 Node,50,NODE 82,Air,5
 Node,51,NODE 77,Air,5
 Node,52,NODE 74,Air,8
 Node,53,NODE 108,Air,4
 Node,54,NODE 121,Air,7
 Node,55,NODE 116,Air,5
 Node,56,NODE 113,Air,8
 Node,57,NODE 147,Air,3
 Node,58,NODE 160,Air,5
 Node,59,NODE 155,Air,5
 Node,60,NODE 152,Air,8
 Node,61,NODE 52,Water,2
 Node,62,NODE 58,Water,1
 Node,63,NODE 54,Water,1
 Node,64,NODE 60,Water,1
 Node,65,NODE 63,Water,1
 Node,66,NODE 64,Water,1
 Node,67,NODE 66,Water,1
 Node,68,NODE 53,Water,4
 Node,69,NODE 55,Water,2
 Node,70,NODE 67,Water,3
 Node,71,NODE 59,Water,1
 Node,72,NODE 57,Water,1
 Node,73,NODE 65,Water,1
 Node,74,NODE 78,Water,2
 Node,75,NODE 79,Water,1
 Node,76,NODE 117,Water,2
 Node,77,NODE 118,Water,1
 Node,78,NODE 156,Water,2
 Node,79,NODE 157,Water,1
 Node,80,NODE 194,Water,2
 Node,81,NODE 195,Water,1
 Node,82,CHILLED WATER LOOP DEMAND BYPASS PIPE INLET NODE,Water,1
 Node,83,CHILLED WATER LOOP DEMAND BYPASS PIPE OUTLET NODE,Water,1
 Node,84,NODE 68,Water,1
 Node,85,NODE 56,Water,2
 Node,86,NODE 38,Water,2
 Node,87,NODE 44,Water,1
 Node,88,NODE 40,Water,1
 Node,89,NODE 45,Water,1
 Node,90,NODE 46,Water,1
 Node,91,NODE 47,Water,1
 Node,92,NODE 49,Water,1
 Node,93,NODE 39,Water,4
 Node,94,NODE 41,Water,2
 Node,95,NODE 50,Water,1
 Node,96,NODE 43,Water,1
 Node,97,NODE 48,Water,1
 Node,98,NODE 61,Water,1
 Node,99,NODE 62,Water,1
 Node,100,CONDENSER WATER LOOP DEMAND BYPASS PIPE INLET NODE,Water,1
 Node,101,CONDENSER WATER LOOP DEMAND BYPASS PIPE OUTLET NODE,Water,1
 Node,102,NODE 51,Water,1
 Node,103,NODE 42,Water,2
 Node,104,NODE 204,Water,2
 Node,105,NODE 210,Water,1
 Node,106,NODE 206,Water,2
 Node,107,NODE 211,Water,3
 Node,108,NODE 212,Water,2
 Node,109,NODE 213,Water,3
 Node,110,NODE 214,Water,1
 Node,111,NODE 215,Water,1
 Node,112,NODE 217,Water,1
 Node,113,NODE 205,Water,4
 Node,114,NODE 207,Water,2
 Node,115,NODE 218,Water,1
 Node,116,NODE 209,Water,1
 Node,117,NODE 216,Water,1
 Node,118,NODE 225,Water,1
 Node,119,NODE 226,Water,1
 Node,120,NODE 227,Water,1
 Node,121,NODE 228,Water,1
 Node,122,NODE 238,Water,1
 Node,123,NODE 239,Water,1
 Node,124,NODE 240,Water,1
 Node,125,NODE 241,Water,1
 Node,126,NODE 251,Water,1
 Node,127,NODE 252,Water,1
 Node,128,NODE 253,Water,1
 Node,129,NODE 254,Water,1
 Node,130,NODE 264,Water,1
 Node,131,NODE 265,Water,1
 Node,132,NODE 266,Water,1
 Node,133,NODE 267,Water,1
 Node,134,HEAT PUMP LOOP DEMAND BYPASS PIPE INLET NODE,Water,1
 Node,135,HEAT PUMP LOOP DEMAND BYPASS PIPE OUTLET NODE,Water,1
 Node,136,NODE 219,Water,1
 Node,137,NODE 208,Water,2
 Node,138,NODE 24,Water,2
 Node,139,NODE 30,Water,1
 Node,140,NODE 26,Water,1
 Node,141,NODE 31,Water,1
 Node,142,NODE 32,Water,1
 Node,143,NODE 33,Water,1
 Node,144,NODE 35,Water,1
 Node,145,NODE 25,Water,4
 Node,146,NODE 27,Water,2
 Node,147,NODE 36,Water,1
 Node,148,NODE 29,Water,1
 Node,149,NODE 34,Water,1
 Node,150,NODE 75,Water,2
 Node,151,NODE 76,Water,1
 Node,152,NODE 83,Water,1
 Node,153,NODE 84,Water,1
 Node,154,NODE 87,Water,1
 Node,155,NODE 89,Water,1
 Node,156,NODE 93,Water,1
 Node,157,NODE 94,Water,1
 Node,158,NODE 98,Water,1
 Node,159,NODE 99,Water,1
 Node,160,NODE 103,Water,1
 Node,161,NODE 104,Water,1
 Node,162,NODE 114,Water,2
 Node,163,NODE 115,Water,1
 Node,164,NODE 122,Water,1
 Node,165,NODE 123,Water,1
 Node,166,NODE 126,Water,1
 Node,167,NODE 128,Water,1
 Node,168,NODE 132,Water,1
 Node,169,NODE 133,Water,1
 Node,170,NODE 137,Water,1
 Node,171,NODE 138,Water,1
 Node,172,NODE 142,Water,1
 Node,173,NODE 143,Water,1
 Node,174,NODE 153,Water,2
 Node,175,NODE 154,Water,1
 Node,176,NODE 161,Water,1
 Node,177,NODE 162,Water,1
 Node,178,NODE 165,Water,1
 Node,179,NODE 167,Water,1
 Node,180,NODE 171,Water,1
 Node,181,NODE 172,Water,1
 Node,182,NODE 176,Water,1
 Node,183,NODE 177,Water,1
 Node,184,NODE 181,Water,1
 Node,185,NODE 182,Water,1
 Node,186,NODE 192,Water,2
 Node,187,NODE 193,Water,1
 Node,188,NODE 200,Water,1
 Node,189,NODE 201,Water,1
 Node,190,HOT WATER LOOP DEMAND BYPASS PIPE INLET NODE,Water,1
 Node,191,HOT WATER LOOP DEMAND BYPASS PIPE OUTLET NODE,Water,1
 Node,192,NODE 37,Water,1
 Node,193,NODE 28,Water,2
 Node,194,NODE 272,Water,2
 Node,195,NODE 278,Water,1
 Node,196,NODE 274,Water,1
 Node,197,NODE 279,Water,1
 Node,198,NODE 280,Water,1
 Node,199,NODE 281,Water,1
 Node,200,NODE 283,Water,1
 Node,201,NODE 273,Water,4
 Node,202,NODE 275,Water,2
 Node,203,NODE 284,Water,1
 Node,204,NODE 277,Water,1
 Node,205,NODE 282,Water,1
 Node,206,NODE 286,Water,1
 Node,207,NODE 287,Water,1
 Node,208,NODE 288,Water,1
 Node,209,NODE 289,Water,1
 Node,210,NODE 290,Water,1
 Node,211,NODE 291,Water,1
 Node,212,MAIN SERVICE WATER LOOP DEMAND BYPASS PIPE INLET NODE,Water,1
 Node,213,MAIN SERVICE WATER LOOP DEMAND BYPASS PIPE OUTLET NODE,Water,1
 Node,214,NODE 285,Water,1
 Node,215,NODE 276,Water,2
 Node,216,NODE 1,Air,0
 Node,217,NODE 202,Air,1
 Node,218,NODE 2,Air,0
 Node,219,NODE 106,Air,1
 Node,220,NODE 3,Air,0
 Node,221,NODE 145,Air,1
 Node,222,NODE 4,Air,0
 Node,223,NODE 184,Air,1
 Node,224,NODE 5,Air,1
 Node,225,NODE 232,Air,1
 Node,226,NODE 6,Air,1
 Node,227,NODE 245,Air,1
 Node,228,NODE 7,Air,1
 Node,229,NODE 258,Air,1
 Node,230,NODE 8,Air,1
 Node,231,NODE 271,Air,1
 Node,232,NODE 11,Air,0
 Node,233,NODE 85,Air,1
 Node,234,NODE 12,Air,0
 Node,235,NODE 91,Air,1
 Node,236,NODE 13,Air,0
 Node,237,NODE 96,Air,1
 Node,238,NODE 14,Air,0
 Node,239,NODE 101,Air,1
 Node,240,NODE 15,Air,0
 Node,241,NODE 124,Air,1
 Node,242,NODE 16,Air,0
 Node,243,NODE 130,Air,1
 Node,244,NODE 17,Air,0
 Node,245,NODE 135,Air,1
 Node,246,NODE 18,Air,0
 Node,247,NODE 140,Air,1
 Node,248,NODE 19,Air,0
 Node,249,NODE 163,Air,1
 Node,250,NODE 20,Air,0
 Node,251,NODE 169,Air,1
 Node,252,NODE 21,Air,0
 Node,253,NODE 174,Air,1
 Node,254,NODE 22,Air,0
 Node,255,NODE 179,Air,1
 Node,256,NODE 189,Air,2
 Node,257,NODE 223,Air,2
 Node,258,NODE 236,Air,2
 Node,259,NODE 249,Air,2
 Node,260,NODE 262,Air,2
 Node,261,NODE 72,Air,2
 Node,262,NODE 111,Air,2
 Node,263,NODE 150,Air,2
 Node,264,NODE 197,Air,2
 Node,265,NODE 229,Air,2
 Node,266,NODE 242,Air,2
 Node,267,NODE 255,Air,2
 Node,268,NODE 268,Air,2
 Node,269,NODE 80,Air,2
 Node,270,NODE 119,Air,3
 Node,271,NODE 158,Air,2
 Node,272,MODEL OUTDOOR AIR NODE,Air,0
 Node,273,DATACENTER_BASEMENT_ZN_6 ZN UNITARY HP FAN - COOLING COIL NODE,Air,2
 Node,274,DATACENTER_BOT_ZN_6 ZN UNITARY HP FAN - COOLING COIL NODE,Air,2
 Node,275,DATACENTER_MID_ZN_6 ZN UNITARY HP FAN - COOLING COIL NODE,Air,2
 Node,276,DATACENTER_TOP_ZN_6 ZN UNITARY HP FAN - COOLING COIL NODE,Air,2
 Node,277,NODE 293,Air,2
 Node,278,NODE 203,Air,1
 Node,279,NODE 86,Air,1
 Node,280,NODE 92,Air,1
 Node,281,NODE 97,Air,1
 Node,282,NODE 102,Air,1
 Node,283,NODE 107,Air,1
 Node,284,NODE 125,Air,1
 Node,285,NODE 131,Air,1
 Node,286,NODE 136,Air,1
 Node,287,NODE 141,Air,1
 Node,288,NODE 146,Air,1
 Node,289,NODE 164,Air,1
 Node,290,NODE 170,Air,1
 Node,291,NODE 175,Air,1
 Node,292,NODE 180,Air,1
 Node,293,NODE 185,Air,1
 Node,294,BASEMENT ZN VAV TERM DAMPER OUTLET,Air,1
 Node,295,CORE_BOTTOM ZN VAV TERM DAMPER OUTLET,Air,1
 Node,296,CORE_MID ZN VAV TERM DAMPER OUTLET,Air,1
 Node,297,CORE_TOP ZN VAV TERM DAMPER OUTLET,Air,1
 Node,298,PERIMETER_BOT_ZN_1 ZN VAV TERM DAMPER OUTLET,Air,1
 Node,299,PERIMETER_BOT_ZN_2 ZN VAV TERM DAMPER OUTLET,Air,1
 Node,300,PERIMETER_BOT_ZN_3 ZN VAV TERM DAMPER OUTLET,Air,1
 Node,301,PERIMETER_BOT_ZN_4 ZN VAV TERM DAMPER OUTLET,Air,1
 Node,302,PERIMETER_MID_ZN_1 ZN VAV TERM DAMPER OUTLET,Air,1
 Node,303,PERIMETER_MID_ZN_2 ZN VAV TERM DAMPER OUTLET,Air,1
 Node,304,PERIMETER_MID_ZN_3 ZN VAV TERM DAMPER OUTLET,Air,1
 Node,305,PERIMETER_MID_ZN_4 ZN VAV TERM DAMPER OUTLET,Air,1
 Node,306,PERIMETER_TOP_ZN_1 ZN VAV TERM DAMPER OUTLET,Air,1
 Node,307,PERIMETER_TOP_ZN_2 ZN VAV TERM DAMPER OUTLET,Air,1
 Node,308,PERIMETER_TOP_ZN_3 ZN VAV TERM DAMPER OUTLET,Air,1
 Node,309,PERIMETER_TOP_ZN_4 ZN VAV TERM DAMPER OUTLET,Air,1
 Node,310,NODE 88,Air,1
 Node,311,NODE 127,Air,1
 Node,312,NODE 166,Air,1
 Node,313,NODE 9,Air,0
 Node,314,NODE 10,Air,0
 Node,315,NODE 23,Air,0
 Node,316,NODE 198,Air,1
 Node,317,NODE 230,Air,1
 Node,318,NODE 243,Air,1
 Node,319,NODE 256,Air,1
 Node,320,NODE 269,Air,1
 Node,321,NODE 81,Air,1
 Node,322,NODE 294,Air,2
 Node,323,NODE 159,Air,1
 Node,324,DATACENTER_BASEMENT_ZN_6 ZN UNITARY HP COOLING COIL - HEATING COIL NODE,Air,1
 Node,325,DATACENTER_BOT_ZN_6 ZN UNITARY HP COOLING COIL - HEATING COIL NODE,Air,1
 Node,326,DATACENTER_MID_ZN_6 ZN UNITARY HP COOLING COIL - HEATING COIL NODE,Air,1
 Node,327,DATACENTER_TOP_ZN_6 ZN UNITARY HP COOLING COIL - HEATING COIL NODE,Air,1
 Node,328,DATACENTER_BASEMENT_ZN_6 ZN UNITARY HP HEATING COIL - SUPPLEMENTAL COIL NODE,Air,1
 Node,329,DATACENTER_BOT_ZN_6 ZN UNITARY HP HEATING COIL - SUPPLEMENTAL COIL NODE,Air,1
 Node,330,DATACENTER_MID_ZN_6 ZN UNITARY HP HEATING COIL - SUPPLEMENTAL COIL NODE,Air,1
 Node,331,DATACENTER_TOP_ZN_6 ZN UNITARY HP HEATING COIL - SUPPLEMENTAL COIL NODE,Air,1
 Node,332,NODE 120,Air,0
! ===============================================================
! Suspicious nodes have 0 references.  It is normal for some nodes, however.
! Listing nodes with 0 references (culled from previous list):
! <Suspicious Node>,<NodeNumber>,<Node Name>,<Node Fluid Type>,<# Times Node Referenced After Definition>
 Suspicious Node,216,NODE 1,Air,0
 Suspicious Node,218,NODE 2,Air,0
 Suspicious Node,220,NODE 3,Air,0
 Suspicious Node,222,NODE 4,Air,0
 Suspicious Node,232,NODE 11,Air,0
 Suspicious Node,234,NODE 12,Air,0
 Suspicious Node,236,NODE 13,Air,0
 Suspicious Node,238,NODE 14,Air,0
 Suspicious Node,240,NODE 15,Air,0
 Suspicious Node,242,NODE 16,Air,0
 Suspicious Node,244,NODE 17,Air,0
 Suspicious Node,246,NODE 18,Air,0
 Suspicious Node,248,NODE 19,Air,0
 Suspicious Node,250,NODE 20,Air,0
 Suspicious Node,252,NODE 21,Air,0
 Suspicious Node,254,NODE 22,Air,0
 Suspicious Node,272,MODEL OUTDOOR AIR NODE,Air,0
 Suspicious Node,313,NODE 9,Air,0
 Suspicious Node,314,NODE 10,Air,0
 Suspicious Node,315,NODE 23,Air,0
 Suspicious Node,332,NODE 120,Air,0
! ===============================================================
! <#Branch Lists>,<Number of Branch Lists>
 #Branch Lists,18
! <Branch List>,<Branch List Count>,<Branch List Name>,<Loop Name>,<Loop Type>,<Number of Branches>
! <Branch>,<Branch Count>,<Branch Name>,<Loop Name>,<Loop Type>,<Branch Inlet Node Name>,<Branch Outlet Node Name>
 Branch List,1,CAV_BAS SUPPLY BRANCHES,CAV_BAS,Air,1
   Branch,1,CAV_BAS MAIN BRANCH,CAV_BAS,Air,NODE 186,NODE 187
 Branch List,2,DATACENTER_BASEMENT_ZN_6 ZN PSZ-AC DATA CENTER SUPPLY BRANCHES,DATACENTER_BASEMENT_ZN_6 ZN PSZ-AC DATA CENTER,Air,1
   Branch,1,DATACENTER_BASEMENT_ZN_6 ZN PSZ-AC DATA CENTER MAIN BRANCH,DATACENTER_BASEMENT_ZN_6 ZN PSZ-AC DATA CENTER,Air,NODE 220,NODE 221
 Branch List,3,DATACENTER_BOT_ZN_6 ZN PSZ-AC DATA CENTER SUPPLY BRANCHES,DATACENTER_BOT_ZN_6 ZN PSZ-AC DATA CENTER,Air,1
   Branch,1,DATACENTER_BOT_ZN_6 ZN PSZ-AC DATA CENTER MAIN BRANCH,DATACENTER_BOT_ZN_6 ZN PSZ-AC DATA CENTER,Air,NODE 233,NODE 234
 Branch List,4,DATACENTER_MID_ZN_6 ZN PSZ-AC DATA CENTER SUPPLY BRANCHES,DATACENTER_MID_ZN_6 ZN PSZ-AC DATA CENTER,Air,1
   Branch,1,DATACENTER_MID_ZN_6 ZN PSZ-AC DATA CENTER MAIN BRANCH,DATACENTER_MID_ZN_6 ZN PSZ-AC DATA CENTER,Air,NODE 246,NODE 247
 Branch List,5,DATACENTER_TOP_ZN_6 ZN PSZ-AC DATA CENTER SUPPLY BRANCHES,DATACENTER_TOP_ZN_6 ZN PSZ-AC DATA CENTER,Air,1
   Branch,1,DATACENTER_TOP_ZN_6 ZN PSZ-AC DATA CENTER MAIN BRANCH,DATACENTER_TOP_ZN_6 ZN PSZ-AC DATA CENTER,Air,NODE 259,NODE 260
 Branch List,6,VAV_BOT WITH REHEAT SUPPLY BRANCHES,VAV_BOT WITH REHEAT,Air,1
   Branch,1,VAV_BOT WITH REHEAT MAIN BRANCH,VAV_BOT WITH REHEAT,Air,NODE 69,NODE 70
 Branch List,7,VAV_MID WITH REHEAT SUPPLY BRANCHES,VAV_MID WITH REHEAT,Air,1
   Branch,1,VAV_MID WITH REHEAT MAIN BRANCH,VAV_MID WITH REHEAT,Air,NODE 108,NODE 109
 Branch List,8,VAV_TOP WITH REHEAT SUPPLY BRANCHES,VAV_TOP WITH REHEAT,Air,1
   Branch,1,VAV_TOP WITH REHEAT MAIN BRANCH,VAV_TOP WITH REHEAT,Air,NODE 147,NODE 148
 Branch List,9,CHILLED WATER LOOP SUPPLY BRANCHES,CHILLED WATER LOOP,Plant Supply,4
   Branch,1,CHILLED WATER LOOP SUPPLY INLET BRANCH,CHILLED WATER LOOP,Plant Supply,NODE 52,NODE 58
   Branch,2,CHILLED WATER LOOP SUPPLY BRANCH 1,CHILLED WATER LOOP,Plant Supply,NODE 54,NODE 60
   Branch,3,CHILLED WATER LOOP SUPPLY BRANCH 2,CHILLED WATER LOOP,Plant Supply,NODE 63,NODE 64
   Branch,4,CHILLED WATER LOOP SUPPLY OUTLET BRANCH,CHILLED WATER LOOP,Plant Supply,NODE 66,NODE 53
 Branch List,10,CHILLED WATER LOOP DEMAND BRANCHES,CHILLED WATER LOOP,Plant Demand,8
   Branch,1,CHILLED WATER LOOP DEMAND INLET BRANCH,CHILLED WATER LOOP,Plant Demand,NODE 55,NODE 59
   Branch,2,CHILLED WATER LOOP DEMAND BRANCH 1,CHILLED WATER LOOP,Plant Demand,NODE 57,NODE 65
   Branch,3,CHILLED WATER LOOP DEMAND BRANCH 2,CHILLED WATER LOOP,Plant Demand,NODE 78,NODE 79
   Branch,4,CHILLED WATER LOOP DEMAND BRANCH 3,CHILLED WATER LOOP,Plant Demand,NODE 117,NODE 118
   Branch,5,CHILLED WATER LOOP DEMAND BRANCH 4,CHILLED WATER LOOP,Plant Demand,NODE 156,NODE 157
   Branch,6,CHILLED WATER LOOP DEMAND BRANCH 5,CHILLED WATER LOOP,Plant Demand,NODE 194,NODE 195
   Branch,7,CHILLED WATER LOOP DEMAND BYPASS BRANCH,CHILLED WATER LOOP,Plant Demand,CHILLED WATER LOOP DEMAND BYPASS PIPE INLET NODE,CHILLED WATER LOOP DEMAND BYPASS PIPE OUTLET NODE
   Branch,8,CHILLED WATER LOOP DEMAND OUTLET BRANCH,CHILLED WATER LOOP,Plant Demand,NODE 68,NODE 56
 Branch List,11,CONDENSER WATER LOOP SUPPLY BRANCHES,CONDENSER WATER LOOP,Plant Supply,4
   Branch,1,CONDENSER WATER LOOP SUPPLY INLET BRANCH,CONDENSER WATER LOOP,Plant Supply,NODE 38,NODE 44
   Branch,2,CONDENSER WATER LOOP SUPPLY BRANCH 1,CONDENSER WATER LOOP,Plant Supply,NODE 40,NODE 45
   Branch,3,CONDENSER WATER LOOP SUPPLY BRANCH 2,CONDENSER WATER LOOP,Plant Supply,NODE 46,NODE 47
   Branch,4,CONDENSER WATER LOOP SUPPLY OUTLET BRANCH,CONDENSER WATER LOOP,Plant Supply,NODE 49,NODE 39
 Branch List,12,CONDENSER WATER LOOP DEMAND BRANCHES,CONDENSER WATER LOOP,Plant Demand,5
   Branch,1,CONDENSER WATER LOOP DEMAND INLET BRANCH,CONDENSER WATER LOOP,Plant Demand,NODE 41,NODE 50
   Branch,2,CONDENSER WATER LOOP DEMAND BRANCH 1,CONDENSER WATER LOOP,Plant Demand,NODE 43,NODE 48
   Branch,3,CONDENSER WATER LOOP DEMAND BRANCH 2,CONDENSER WATER LOOP,Plant Demand,NODE 61,NODE 62
   Branch,4,CONDENSER WATER LOOP DEMAND BYPASS BRANCH,CONDENSER WATER LOOP,Plant Demand,CONDENSER WATER LOOP DEMAND BYPASS PIPE INLET NODE,CONDENSER WATER LOOP DEMAND BYPASS PIPE OUTLET NODE
   Branch,5,CONDENSER WATER LOOP DEMAND OUTLET BRANCH,CONDENSER WATER LOOP,Plant Demand,NODE 51,NODE 42
 Branch List,13,HEAT PUMP LOOP SUPPLY BRANCHES,HEAT PUMP LOOP,Plant Supply,5
   Branch,1,HEAT PUMP LOOP SUPPLY INLET BRANCH,HEAT PUMP LOOP,Plant Supply,NODE 204,NODE 210
   Branch,2,HEAT PUMP LOOP SUPPLY BRANCH 1,HEAT PUMP LOOP,Plant Supply,NODE 206,NODE 211
   Branch,3,HEAT PUMP LOOP SUPPLY BRANCH 2,HEAT PUMP LOOP,Plant Supply,NODE 212,NODE 213
   Branch,4,HEAT PUMP LOOP SUPPLY BRANCH 3,HEAT PUMP LOOP,Plant Supply,NODE 214,NODE 215
   Branch,5,HEAT PUMP LOOP SUPPLY OUTLET BRANCH,HEAT PUMP LOOP,Plant Supply,NODE 217,NODE 205
 Branch List,14,HEAT PUMP LOOP DEMAND BRANCHES,HEAT PUMP LOOP,Plant Demand,12
   Branch,1,HEAT PUMP LOOP DEMAND INLET BRANCH,HEAT PUMP LOOP,Plant Demand,NODE 207,NODE 218
   Branch,2,HEAT PUMP LOOP DEMAND BRANCH 1,HEAT PUMP LOOP,Plant Demand,NODE 209,NODE 216
   Branch,3,HEAT PUMP LOOP DEMAND BRANCH 2,HEAT PUMP LOOP,Plant Demand,NODE 225,NODE 226
   Branch,4,HEAT PUMP LOOP DEMAND BRANCH 3,HEAT PUMP LOOP,Plant Demand,NODE 227,NODE 228
   Branch,5,HEAT PUMP LOOP DEMAND BRANCH 4,HEAT PUMP LOOP,Plant Demand,NODE 238,NODE 239
   Branch,6,HEAT PUMP LOOP DEMAND BRANCH 5,HEAT PUMP LOOP,Plant Demand,NODE 240,NODE 241
   Branch,7,HEAT PUMP LOOP DEMAND BRANCH 6,HEAT PUMP LOOP,Plant Demand,NODE 251,NODE 252
   Branch,8,HEAT PUMP LOOP DEMAND BRANCH 7,HEAT PUMP LOOP,Plant Demand,NODE 253,NODE 254
   Branch,9,HEAT PUMP LOOP DEMAND BRANCH 8,HEAT PUMP LOOP,Plant Demand,NODE 264,NODE 265
   Branch,10,HEAT PUMP LOOP DEMAND BRANCH 9,HEAT PUMP LOOP,Plant Demand,NODE 266,NODE 267
   Branch,11,HEAT PUMP LOOP DEMAND BYPASS BRANCH,HEAT PUMP LOOP,Plant Demand,HEAT PUMP LOOP DEMAND BYPASS PIPE INLET NODE,HEAT PUMP LOOP DEMAND BYPASS PIPE OUTLET NODE
   Branch,12,HEAT PUMP LOOP DEMAND OUTLET BRANCH,HEAT PUMP LOOP,Plant Demand,NODE 219,NODE 208
 Branch List,15,HOT WATER LOOP SUPPLY BRANCHES,HOT WATER LOOP,Plant Supply,4
   Branch,1,HOT WATER LOOP SUPPLY INLET BRANCH,HOT WATER LOOP,Plant Supply,NODE 24,NODE 30
   Branch,2,HOT WATER LOOP SUPPLY BRANCH 1,HOT WATER LOOP,Plant Supply,NODE 26,NODE 31
   Branch,3,HOT WATER LOOP SUPPLY BRANCH 2,HOT WATER LOOP,Plant Supply,NODE 32,NODE 33
   Branch,4,HOT WATER LOOP SUPPLY OUTLET BRANCH,HOT WATER LOOP,Plant Supply,NODE 35,NODE 25
 Branch List,16,HOT WATER LOOP DEMAND BRANCHES,HOT WATER LOOP,Plant Demand,24
   Branch,1,HOT WATER LOOP DEMAND INLET BRANCH,HOT WATER LOOP,Plant Demand,NODE 27,NODE 36
   Branch,2,HOT WATER LOOP DEMAND BRANCH 1,HOT WATER LOOP,Plant Demand,NODE 29,NODE 34
   Branch,3,HOT WATER LOOP DEMAND BRANCH 2,HOT WATER LOOP,Plant Demand,NODE 75,NODE 76
   Branch,4,HOT WATER LOOP DEMAND BRANCH 3,HOT WATER LOOP,Plant Demand,NODE 83,NODE 84
   Branch,5,HOT WATER LOOP DEMAND BRANCH 4,HOT WATER LOOP,Plant Demand,NODE 87,NODE 89
   Branch,6,HOT WATER LOOP DEMAND BRANCH 5,HOT WATER LOOP,Plant Demand,NODE 93,NODE 94
   Branch,7,HOT WATER LOOP DEMAND BRANCH 6,HOT WATER LOOP,Plant Demand,NODE 98,NODE 99
   Branch,8,HOT WATER LOOP DEMAND BRANCH 7,HOT WATER LOOP,Plant Demand,NODE 103,NODE 104
   Branch,9,HOT WATER LOOP DEMAND BRANCH 8,HOT WATER LOOP,Plant Demand,NODE 114,NODE 115
   Branch,10,HOT WATER LOOP DEMAND BRANCH 9,HOT WATER LOOP,Plant Demand,NODE 122,NODE 123
   Branch,11,HOT WATER LOOP DEMAND BRANCH 10,HOT WATER LOOP,Plant Demand,NODE 126,NODE 128
   Branch,12,HOT WATER LOOP DEMAND BRANCH 11,HOT WATER LOOP,Plant Demand,NODE 132,NODE 133
   Branch,13,HOT WATER LOOP DEMAND BRANCH 12,HOT WATER LOOP,Plant Demand,NODE 137,NODE 138
   Branch,14,HOT WATER LOOP DEMAND BRANCH 13,HOT WATER LOOP,Plant Demand,NODE 142,NODE 143
   Branch,15,HOT WATER LOOP DEMAND BRANCH 14,HOT WATER LOOP,Plant Demand,NODE 153,NODE 154
   Branch,16,HOT WATER LOOP DEMAND BRANCH 15,HOT WATER LOOP,Plant Demand,NODE 161,NODE 162
   Branch,17,HOT WATER LOOP DEMAND BRANCH 16,HOT WATER LOOP,Plant Demand,NODE 165,NODE 167
   Branch,18,HOT WATER LOOP DEMAND BRANCH 17,HOT WATER LOOP,Plant Demand,NODE 171,NODE 172
   Branch,19,HOT WATER LOOP DEMAND BRANCH 18,HOT WATER LOOP,Plant Demand,NODE 176,NODE 177
   Branch,20,HOT WATER LOOP DEMAND BRANCH 19,HOT WATER LOOP,Plant Demand,NODE 181,NODE 182
   Branch,21,HOT WATER LOOP DEMAND BRANCH 20,HOT WATER LOOP,Plant Demand,NODE 192,NODE 193
   Branch,22,HOT WATER LOOP DEMAND BRANCH 21,HOT WATER LOOP,Plant Demand,NODE 200,NODE 201
   Branch,23,HOT WATER LOOP DEMAND BYPASS BRANCH,HOT WATER LOOP,Plant Demand,HOT WATER LOOP DEMAND BYPASS PIPE INLET NODE,HOT WATER LOOP DEMAND BYPASS PIPE OUTLET NODE
   Branch,24,HOT WATER LOOP DEMAND OUTLET BRANCH,HOT WATER LOOP,Plant Demand,NODE 37,NODE 28
 Branch List,17,MAIN SERVICE WATER LOOP SUPPLY BRANCHES,MAIN SERVICE WATER LOOP,Plant Supply,4
   Branch,1,MAIN SERVICE WATER LOOP SUPPLY INLET BRANCH,MAIN SERVICE WATER LOOP,Plant Supply,NODE 272,NODE 278
   Branch,2,MAIN SERVICE WATER LOOP SUPPLY BRANCH 1,MAIN SERVICE WATER LOOP,Plant Supply,NODE 274,NODE 279
   Branch,3,MAIN SERVICE WATER LOOP SUPPLY BRANCH 2,MAIN SERVICE WATER LOOP,Plant Supply,NODE 280,NODE 281
   Branch,4,MAIN SERVICE WATER LOOP SUPPLY OUTLET BRANCH,MAIN SERVICE WATER LOOP,Plant Supply,NODE 283,NODE 273
 Branch List,18,MAIN SERVICE WATER LOOP DEMAND BRANCHES,MAIN SERVICE WATER LOOP,Plant Demand,7
   Branch,1,MAIN SERVICE WATER LOOP DEMAND INLET BRANCH,MAIN SERVICE WATER LOOP,Plant Demand,NODE 275,NODE 284
   Branch,2,MAIN SERVICE WATER LOOP DEMAND BRANCH 1,MAIN SERVICE WATER LOOP,Plant Demand,NODE 277,NODE 282
   Branch,3,MAIN SERVICE WATER LOOP DEMAND BRANCH 2,MAIN SERVICE WATER LOOP,Plant Demand,NODE 286,NODE 287
   Branch,4,MAIN SERVICE WATER LOOP DEMAND BRANCH 3,MAIN SERVICE WATER LOOP,Plant Demand,NODE 288,NODE 289
   Branch,5,MAIN SERVICE WATER LOOP DEMAND BRANCH 4,MAIN SERVICE WATER LOOP,Plant Demand,NODE 290,NODE 291
   Branch,6,MAIN SERVICE WATER LOOP DEMAND BYPASS BRANCH,MAIN SERVICE WATER LOOP,Plant Demand,MAIN SERVICE WATER LOOP DEMAND BYPASS PIPE INLET NODE,MAIN SERVICE WATER LOOP DEMAND BYPASS PIPE OUTLET NODE
   Branch,7,MAIN SERVICE WATER LOOP DEMAND OUTLET BRANCH,MAIN SERVICE WATER LOOP,Plant Demand,NODE 285,NODE 276
! ===============================================================
! <#Supply Air Paths>,<Number of Supply Air Paths>
 #Supply Air Paths,8
! <Supply Air Path>,<Supply Air Path Count>,<Supply Air Path Name>,<AirLoopHVAC Name>
! <#Components on Supply Air Path>,<Number of Components>
! <Supply Air Path Component>,<Component Count>,<Component Type>,<Component Name>,<AirLoopHVAC Name>
! <#Outlet Nodes on Supply Air Path Component>,<Number of Nodes>
! <Supply Air Path Component Nodes>,<Node Count>,<Component Type>,<Component Name>,<Inlet Node Name>,<Outlet Node Name>,<AirLoopHVAC Name>
 Supply Air Path,1,CAV_BAS NODE 188 SUPPLY PATH,CAV_BAS
   #Components on Supply Air Path,1
   Supply Air Path Component,1,AIRLOOPHVAC:ZONESPLITTER,AIR LOOP HVAC ZONE SPLITTER 4,CAV_BAS
     #Outlet Nodes on Supply Air Path Component,1
     Supply Air Path Component Nodes,1,AIRLOOPHVAC:ZONESPLITTER,AIR LOOP HVAC ZONE SPLITTER 4,NODE 188,NODE 203,CAV_BAS
! <#Nodes on Supply Air Path>,<Number of Nodes>
! <Supply Air Path Node>,<Node Type>,<Node Count>,<Node Name>,<AirLoopHVAC Name>
#Nodes on Supply Air Path,2
   Supply Air Path Node,Inlet Node,1,NODE 188,CAV_BAS
   Supply Air Path Node,Outlet Node,2,NODE 203,CAV_BAS
 Supply Air Path,2,DATACENTER_BASEMENT_ZN_6 ZN PSZ-AC DATA CENTER NODE 222 SUPPLY PATH,DATACENTER_BASEMENT_ZN_6 ZN PSZ-AC DATA CENTER
   #Components on Supply Air Path,1
   Supply Air Path Component,1,AIRLOOPHVAC:ZONESPLITTER,AIR LOOP HVAC ZONE SPLITTER 5,DATACENTER_BASEMENT_ZN_6 ZN PSZ-AC DATA CENTER
     #Outlet Nodes on Supply Air Path Component,1
     Supply Air Path Component Nodes,1,AIRLOOPHVAC:ZONESPLITTER,AIR LOOP HVAC ZONE SPLITTER 5,NODE 222,NODE 224,DATACENTER_BASEMENT_ZN_6 ZN PSZ-AC DATA CENTER
! <#Nodes on Supply Air Path>,<Number of Nodes>
! <Supply Air Path Node>,<Node Type>,<Node Count>,<Node Name>,<AirLoopHVAC Name>
#Nodes on Supply Air Path,2
   Supply Air Path Node,Inlet Node,1,NODE 222,DATACENTER_BASEMENT_ZN_6 ZN PSZ-AC DATA CENTER
   Supply Air Path Node,Outlet Node,2,NODE 224,DATACENTER_BASEMENT_ZN_6 ZN PSZ-AC DATA CENTER
 Supply Air Path,3,DATACENTER_BOT_ZN_6 ZN PSZ-AC DATA CENTER NODE 235 SUPPLY PATH,DATACENTER_BOT_ZN_6 ZN PSZ-AC DATA CENTER
   #Components on Supply Air Path,1
   Supply Air Path Component,1,AIRLOOPHVAC:ZONESPLITTER,AIR LOOP HVAC ZONE SPLITTER 6,DATACENTER_BOT_ZN_6 ZN PSZ-AC DATA CENTER
     #Outlet Nodes on Supply Air Path Component,1
     Supply Air Path Component Nodes,1,AIRLOOPHVAC:ZONESPLITTER,AIR LOOP HVAC ZONE SPLITTER 6,NODE 235,NODE 237,DATACENTER_BOT_ZN_6 ZN PSZ-AC DATA CENTER
! <#Nodes on Supply Air Path>,<Number of Nodes>
! <Supply Air Path Node>,<Node Type>,<Node Count>,<Node Name>,<AirLoopHVAC Name>
#Nodes on Supply Air Path,2
   Supply Air Path Node,Inlet Node,1,NODE 235,DATACENTER_BOT_ZN_6 ZN PSZ-AC DATA CENTER
   Supply Air Path Node,Outlet Node,2,NODE 237,DATACENTER_BOT_ZN_6 ZN PSZ-AC DATA CENTER
 Supply Air Path,4,DATACENTER_MID_ZN_6 ZN PSZ-AC DATA CENTER NODE 248 SUPPLY PATH,DATACENTER_MID_ZN_6 ZN PSZ-AC DATA CENTER
   #Components on Supply Air Path,1
   Supply Air Path Component,1,AIRLOOPHVAC:ZONESPLITTER,AIR LOOP HVAC ZONE SPLITTER 7,DATACENTER_MID_ZN_6 ZN PSZ-AC DATA CENTER
     #Outlet Nodes on Supply Air Path Component,1
     Supply Air Path Component Nodes,1,AIRLOOPHVAC:ZONESPLITTER,AIR LOOP HVAC ZONE SPLITTER 7,NODE 248,NODE 250,DATACENTER_MID_ZN_6 ZN PSZ-AC DATA CENTER
! <#Nodes on Supply Air Path>,<Number of Nodes>
! <Supply Air Path Node>,<Node Type>,<Node Count>,<Node Name>,<AirLoopHVAC Name>
#Nodes on Supply Air Path,2
   Supply Air Path Node,Inlet Node,1,NODE 248,DATACENTER_MID_ZN_6 ZN PSZ-AC DATA CENTER
   Supply Air Path Node,Outlet Node,2,NODE 250,DATACENTER_MID_ZN_6 ZN PSZ-AC DATA CENTER
 Supply Air Path,5,DATACENTER_TOP_ZN_6 ZN PSZ-AC DATA CENTER NODE 261 SUPPLY PATH,DATACENTER_TOP_ZN_6 ZN PSZ-AC DATA CENTER
   #Components on Supply Air Path,1
   Supply Air Path Component,1,AIRLOOPHVAC:ZONESPLITTER,AIR LOOP HVAC ZONE SPLITTER 8,DATACENTER_TOP_ZN_6 ZN PSZ-AC DATA CENTER
     #Outlet Nodes on Supply Air Path Component,1
     Supply Air Path Component Nodes,1,AIRLOOPHVAC:ZONESPLITTER,AIR LOOP HVAC ZONE SPLITTER 8,NODE 261,NODE 263,DATACENTER_TOP_ZN_6 ZN PSZ-AC DATA CENTER
! <#Nodes on Supply Air Path>,<Number of Nodes>
! <Supply Air Path Node>,<Node Type>,<Node Count>,<Node Name>,<AirLoopHVAC Name>
#Nodes on Supply Air Path,2
   Supply Air Path Node,Inlet Node,1,NODE 261,DATACENTER_TOP_ZN_6 ZN PSZ-AC DATA CENTER
   Supply Air Path Node,Outlet Node,2,NODE 263,DATACENTER_TOP_ZN_6 ZN PSZ-AC DATA CENTER
 Supply Air Path,6,VAV_BOT WITH REHEAT NODE 71 SUPPLY PATH,VAV_BOT WITH REHEAT
   #Components on Supply Air Path,1
   Supply Air Path Component,1,AIRLOOPHVAC:ZONESPLITTER,AIR LOOP HVAC ZONE SPLITTER 1,VAV_BOT WITH REHEAT
     #Outlet Nodes on Supply Air Path Component,5
     Supply Air Path Component Nodes,1,AIRLOOPHVAC:ZONESPLITTER,AIR LOOP HVAC ZONE SPLITTER 1,NODE 71,NODE 86,VAV_BOT WITH REHEAT
     Supply Air Path Component Nodes,2,AIRLOOPHVAC:ZONESPLITTER,AIR LOOP HVAC ZONE SPLITTER 1,NODE 71,NODE 92,VAV_BOT WITH REHEAT
     Supply Air Path Component Nodes,3,AIRLOOPHVAC:ZONESPLITTER,AIR LOOP HVAC ZONE SPLITTER 1,NODE 71,NODE 97,VAV_BOT WITH REHEAT
     Supply Air Path Component Nodes,4,AIRLOOPHVAC:ZONESPLITTER,AIR LOOP HVAC ZONE SPLITTER 1,NODE 71,NODE 102,VAV_BOT WITH REHEAT
     Supply Air Path Component Nodes,5,AIRLOOPHVAC:ZONESPLITTER,AIR LOOP HVAC ZONE SPLITTER 1,NODE 71,NODE 107,VAV_BOT WITH REHEAT
! <#Nodes on Supply Air Path>,<Number of Nodes>
! <Supply Air Path Node>,<Node Type>,<Node Count>,<Node Name>,<AirLoopHVAC Name>
#Nodes on Supply Air Path,6
   Supply Air Path Node,Inlet Node,1,NODE 71,VAV_BOT WITH REHEAT
   Supply Air Path Node,Outlet Node,2,NODE 86,VAV_BOT WITH REHEAT
   Supply Air Path Node,Outlet Node,3,NODE 92,VAV_BOT WITH REHEAT
   Supply Air Path Node,Outlet Node,4,NODE 97,VAV_BOT WITH REHEAT
   Supply Air Path Node,Outlet Node,5,NODE 102,VAV_BOT WITH REHEAT
   Supply Air Path Node,Outlet Node,6,NODE 107,VAV_BOT WITH REHEAT
 Supply Air Path,7,VAV_MID WITH REHEAT NODE 110 SUPPLY PATH,VAV_MID WITH REHEAT
   #Components on Supply Air Path,1
   Supply Air Path Component,1,AIRLOOPHVAC:ZONESPLITTER,AIR LOOP HVAC ZONE SPLITTER 2,VAV_MID WITH REHEAT
     #Outlet Nodes on Supply Air Path Component,5
     Supply Air Path Component Nodes,1,AIRLOOPHVAC:ZONESPLITTER,AIR LOOP HVAC ZONE SPLITTER 2,NODE 110,NODE 125,VAV_MID WITH REHEAT
     Supply Air Path Component Nodes,2,AIRLOOPHVAC:ZONESPLITTER,AIR LOOP HVAC ZONE SPLITTER 2,NODE 110,NODE 131,VAV_MID WITH REHEAT
     Supply Air Path Component Nodes,3,AIRLOOPHVAC:ZONESPLITTER,AIR LOOP HVAC ZONE SPLITTER 2,NODE 110,NODE 136,VAV_MID WITH REHEAT
     Supply Air Path Component Nodes,4,AIRLOOPHVAC:ZONESPLITTER,AIR LOOP HVAC ZONE SPLITTER 2,NODE 110,NODE 141,VAV_MID WITH REHEAT
     Supply Air Path Component Nodes,5,AIRLOOPHVAC:ZONESPLITTER,AIR LOOP HVAC ZONE SPLITTER 2,NODE 110,NODE 146,VAV_MID WITH REHEAT
! <#Nodes on Supply Air Path>,<Number of Nodes>
! <Supply Air Path Node>,<Node Type>,<Node Count>,<Node Name>,<AirLoopHVAC Name>
#Nodes on Supply Air Path,6
   Supply Air Path Node,Inlet Node,1,NODE 110,VAV_MID WITH REHEAT
   Supply Air Path Node,Outlet Node,2,NODE 125,VAV_MID WITH REHEAT
   Supply Air Path Node,Outlet Node,3,NODE 131,VAV_MID WITH REHEAT
   Supply Air Path Node,Outlet Node,4,NODE 136,VAV_MID WITH REHEAT
   Supply Air Path Node,Outlet Node,5,NODE 141,VAV_MID WITH REHEAT
   Supply Air Path Node,Outlet Node,6,NODE 146,VAV_MID WITH REHEAT
 Supply Air Path,8,VAV_TOP WITH REHEAT NODE 149 SUPPLY PATH,VAV_TOP WITH REHEAT
   #Components on Supply Air Path,1
   Supply Air Path Component,1,AIRLOOPHVAC:ZONESPLITTER,AIR LOOP HVAC ZONE SPLITTER 3,VAV_TOP WITH REHEAT
     #Outlet Nodes on Supply Air Path Component,5
     Supply Air Path Component Nodes,1,AIRLOOPHVAC:ZONESPLITTER,AIR LOOP HVAC ZONE SPLITTER 3,NODE 149,NODE 164,VAV_TOP WITH REHEAT
     Supply Air Path Component Nodes,2,AIRLOOPHVAC:ZONESPLITTER,AIR LOOP HVAC ZONE SPLITTER 3,NODE 149,NODE 170,VAV_TOP WITH REHEAT
     Supply Air Path Component Nodes,3,AIRLOOPHVAC:ZONESPLITTER,AIR LOOP HVAC ZONE SPLITTER 3,NODE 149,NODE 175,VAV_TOP WITH REHEAT
     Supply Air Path Component Nodes,4,AIRLOOPHVAC:ZONESPLITTER,AIR LOOP HVAC ZONE SPLITTER 3,NODE 149,NODE 180,VAV_TOP WITH REHEAT
     Supply Air Path Component Nodes,5,AIRLOOPHVAC:ZONESPLITTER,AIR LOOP HVAC ZONE SPLITTER 3,NODE 149,NODE 185,VAV_TOP WITH REHEAT
! <#Nodes on Supply Air Path>,<Number of Nodes>
! <Supply Air Path Node>,<Node Type>,<Node Count>,<Node Name>,<AirLoopHVAC Name>
#Nodes on Supply Air Path,6
   Supply Air Path Node,Inlet Node,1,NODE 149,VAV_TOP WITH REHEAT
   Supply Air Path Node,Outlet Node,2,NODE 164,VAV_TOP WITH REHEAT
   Supply Air Path Node,Outlet Node,3,NODE 170,VAV_TOP WITH REHEAT
   Supply Air Path Node,Outlet Node,4,NODE 175,VAV_TOP WITH REHEAT
   Supply Air Path Node,Outlet Node,5,NODE 180,VAV_TOP WITH REHEAT
   Supply Air Path Node,Outlet Node,6,NODE 185,VAV_TOP WITH REHEAT
! ===============================================================
! <#Return Air Paths>,<Number of Return Air Paths>
 #Return Air Paths,8
! <Return Air Path>,<Return Air Path Count>,<Return Air Path Name>,<AirLoopHVAC Name>
! <#Components on Return Air Path>,<Number of Components>
! <Return Air Path Component>,<Component Count>,<Component Type>,<Component Name>,<AirLoopHVAC Name>
! <#Inlet Nodes on Return Air Path Component>,<Number of Nodes>
! <Return Air Path Component Nodes>,<Node Count>,<Component Type>,<Component Name>,<Inlet Node Name>,<Outlet Node Name>,<AirLoopHVAC Name>
 Return Air Path,1,CAV_BAS RETURN PATH,CAV_BAS
   #Components on Return Air Path,1
   Return Air Path Component,1,AIRLOOPHVAC:ZONEMIXER,AIR LOOP HVAC ZONE MIXER 4,CAV_BAS
     #Inlet Nodes on Return Air Path Component,1
     Return Air Path Component Nodes,1,AIRLOOPHVAC:ZONEMIXER,AIR LOOP HVAC ZONE MIXER 4,NODE 202,NODE 189,CAV_BAS
! <#Nodes on Return Air Path>,<Number of Nodes>
! <Return Air Path Node>,<Node Type>,<Node Count>,<Node Name>,<AirLoopHVAC Name>
   #Nodes on Return Air Path,2
   Return Air Path Node,Outlet Node,1,NODE 189,CAV_BAS
   Return Air Path Node,Inlet Node,2,NODE 202,CAV_BAS
 Return Air Path,2,DATACENTER_BASEMENT_ZN_6 ZN PSZ-AC DATA CENTER RETURN PATH,DATACENTER_BASEMENT_ZN_6 ZN PSZ-AC DATA CENTER
   #Components on Return Air Path,1
   Return Air Path Component,1,AIRLOOPHVAC:ZONEMIXER,AIR LOOP HVAC ZONE MIXER 5,DATACENTER_BASEMENT_ZN_6 ZN PSZ-AC DATA CENTER
     #Inlet Nodes on Return Air Path Component,1
     Return Air Path Component Nodes,1,AIRLOOPHVAC:ZONEMIXER,AIR LOOP HVAC ZONE MIXER 5,NODE 232,NODE 223,DATACENTER_BASEMENT_ZN_6 ZN PSZ-AC DATA CENTER
! <#Nodes on Return Air Path>,<Number of Nodes>
! <Return Air Path Node>,<Node Type>,<Node Count>,<Node Name>,<AirLoopHVAC Name>
   #Nodes on Return Air Path,2
   Return Air Path Node,Outlet Node,1,NODE 223,DATACENTER_BASEMENT_ZN_6 ZN PSZ-AC DATA CENTER
   Return Air Path Node,Inlet Node,2,NODE 232,DATACENTER_BASEMENT_ZN_6 ZN PSZ-AC DATA CENTER
 Return Air Path,3,DATACENTER_BOT_ZN_6 ZN PSZ-AC DATA CENTER RETURN PATH,DATACENTER_BOT_ZN_6 ZN PSZ-AC DATA CENTER
   #Components on Return Air Path,1
   Return Air Path Component,1,AIRLOOPHVAC:ZONEMIXER,AIR LOOP HVAC ZONE MIXER 6,DATACENTER_BOT_ZN_6 ZN PSZ-AC DATA CENTER
     #Inlet Nodes on Return Air Path Component,1
     Return Air Path Component Nodes,1,AIRLOOPHVAC:ZONEMIXER,AIR LOOP HVAC ZONE MIXER 6,NODE 245,NODE 236,DATACENTER_BOT_ZN_6 ZN PSZ-AC DATA CENTER
! <#Nodes on Return Air Path>,<Number of Nodes>
! <Return Air Path Node>,<Node Type>,<Node Count>,<Node Name>,<AirLoopHVAC Name>
   #Nodes on Return Air Path,2
   Return Air Path Node,Outlet Node,1,NODE 236,DATACENTER_BOT_ZN_6 ZN PSZ-AC DATA CENTER
   Return Air Path Node,Inlet Node,2,NODE 245,DATACENTER_BOT_ZN_6 ZN PSZ-AC DATA CENTER
 Return Air Path,4,DATACENTER_MID_ZN_6 ZN PSZ-AC DATA CENTER RETURN PATH,DATACENTER_MID_ZN_6 ZN PSZ-AC DATA CENTER
   #Components on Return Air Path,1
   Return Air Path Component,1,AIRLOOPHVAC:ZONEMIXER,AIR LOOP HVAC ZONE MIXER 7,DATACENTER_MID_ZN_6 ZN PSZ-AC DATA CENTER
     #Inlet Nodes on Return Air Path Component,1
     Return Air Path Component Nodes,1,AIRLOOPHVAC:ZONEMIXER,AIR LOOP HVAC ZONE MIXER 7,NODE 258,NODE 249,DATACENTER_MID_ZN_6 ZN PSZ-AC DATA CENTER
! <#Nodes on Return Air Path>,<Number of Nodes>
! <Return Air Path Node>,<Node Type>,<Node Count>,<Node Name>,<AirLoopHVAC Name>
   #Nodes on Return Air Path,2
   Return Air Path Node,Outlet Node,1,NODE 249,DATACENTER_MID_ZN_6 ZN PSZ-AC DATA CENTER
   Return Air Path Node,Inlet Node,2,NODE 258,DATACENTER_MID_ZN_6 ZN PSZ-AC DATA CENTER
 Return Air Path,5,DATACENTER_TOP_ZN_6 ZN PSZ-AC DATA CENTER RETURN PATH,DATACENTER_TOP_ZN_6 ZN PSZ-AC DATA CENTER
   #Components on Return Air Path,1
   Return Air Path Component,1,AIRLOOPHVAC:ZONEMIXER,AIR LOOP HVAC ZONE MIXER 8,DATACENTER_TOP_ZN_6 ZN PSZ-AC DATA CENTER
     #Inlet Nodes on Return Air Path Component,1
     Return Air Path Component Nodes,1,AIRLOOPHVAC:ZONEMIXER,AIR LOOP HVAC ZONE MIXER 8,NODE 271,NODE 262,DATACENTER_TOP_ZN_6 ZN PSZ-AC DATA CENTER
! <#Nodes on Return Air Path>,<Number of Nodes>
! <Return Air Path Node>,<Node Type>,<Node Count>,<Node Name>,<AirLoopHVAC Name>
   #Nodes on Return Air Path,2
   Return Air Path Node,Outlet Node,1,NODE 262,DATACENTER_TOP_ZN_6 ZN PSZ-AC DATA CENTER
   Return Air Path Node,Inlet Node,2,NODE 271,DATACENTER_TOP_ZN_6 ZN PSZ-AC DATA CENTER
 Return Air Path,6,VAV_BOT WITH REHEAT RETURN PATH,VAV_BOT WITH REHEAT
   #Components on Return Air Path,2
   Return Air Path Component,1,AIRLOOPHVAC:RETURNPLENUM,AIR LOOP HVAC RETURN PLENUM 1,VAV_BOT WITH REHEAT
   Return Air Path Component,2,AIRLOOPHVAC:ZONEMIXER,AIR LOOP HVAC ZONE MIXER 1,VAV_BOT WITH REHEAT
     #Inlet Nodes on Return Air Path Component,1
     Return Air Path Component Nodes,1,AIRLOOPHVAC:ZONEMIXER,AIR LOOP HVAC ZONE MIXER 1,NODE 88,NODE 72,VAV_BOT WITH REHEAT
! <#Nodes on Return Air Path>,<Number of Nodes>
! <Return Air Path Node>,<Node Type>,<Node Count>,<Node Name>,<AirLoopHVAC Name>
   #Nodes on Return Air Path,7
   Return Air Path Node,Outlet Node,1,NODE 72,VAV_BOT WITH REHEAT
   Return Air Path Node,Inlet Node,2,NODE 88,VAV_BOT WITH REHEAT
   Return Air Path Node,Inlet Node,3,NODE 85,VAV_BOT WITH REHEAT
   Return Air Path Node,Inlet Node,4,NODE 91,VAV_BOT WITH REHEAT
   Return Air Path Node,Inlet Node,5,NODE 96,VAV_BOT WITH REHEAT
   Return Air Path Node,Inlet Node,6,NODE 101,VAV_BOT WITH REHEAT
   Return Air Path Node,Inlet Node,7,NODE 106,VAV_BOT WITH REHEAT
 Return Air Path,7,VAV_MID WITH REHEAT RETURN PATH,VAV_MID WITH REHEAT
   #Components on Return Air Path,2
   Return Air Path Component,1,AIRLOOPHVAC:RETURNPLENUM,AIR LOOP HVAC RETURN PLENUM 2,VAV_MID WITH REHEAT
   Return Air Path Component,2,AIRLOOPHVAC:ZONEMIXER,AIR LOOP HVAC ZONE MIXER 2,VAV_MID WITH REHEAT
     #Inlet Nodes on Return Air Path Component,1
     Return Air Path Component Nodes,1,AIRLOOPHVAC:ZONEMIXER,AIR LOOP HVAC ZONE MIXER 2,NODE 127,NODE 111,VAV_MID WITH REHEAT
! <#Nodes on Return Air Path>,<Number of Nodes>
! <Return Air Path Node>,<Node Type>,<Node Count>,<Node Name>,<AirLoopHVAC Name>
   #Nodes on Return Air Path,7
   Return Air Path Node,Outlet Node,1,NODE 111,VAV_MID WITH REHEAT
   Return Air Path Node,Inlet Node,2,NODE 127,VAV_MID WITH REHEAT
   Return Air Path Node,Inlet Node,3,NODE 124,VAV_MID WITH REHEAT
   Return Air Path Node,Inlet Node,4,NODE 130,VAV_MID WITH REHEAT
   Return Air Path Node,Inlet Node,5,NODE 135,VAV_MID WITH REHEAT
   Return Air Path Node,Inlet Node,6,NODE 140,VAV_MID WITH REHEAT
   Return Air Path Node,Inlet Node,7,NODE 145,VAV_MID WITH REHEAT
 Return Air Path,8,VAV_TOP WITH REHEAT RETURN PATH,VAV_TOP WITH REHEAT
   #Components on Return Air Path,2
   Return Air Path Component,1,AIRLOOPHVAC:RETURNPLENUM,AIR LOOP HVAC RETURN PLENUM 3,VAV_TOP WITH REHEAT
   Return Air Path Component,2,AIRLOOPHVAC:ZONEMIXER,AIR LOOP HVAC ZONE MIXER 3,VAV_TOP WITH REHEAT
     #Inlet Nodes on Return Air Path Component,1
     Return Air Path Component Nodes,1,AIRLOOPHVAC:ZONEMIXER,AIR LOOP HVAC ZONE MIXER 3,NODE 166,NODE 150,VAV_TOP WITH REHEAT
! <#Nodes on Return Air Path>,<Number of Nodes>
! <Return Air Path Node>,<Node Type>,<Node Count>,<Node Name>,<AirLoopHVAC Name>
   #Nodes on Return Air Path,7
   Return Air Path Node,Outlet Node,1,NODE 150,VAV_TOP WITH REHEAT
   Return Air Path Node,Inlet Node,2,NODE 166,VAV_TOP WITH REHEAT
   Return Air Path Node,Inlet Node,3,NODE 163,VAV_TOP WITH REHEAT
   Return Air Path Node,Inlet Node,4,NODE 169,VAV_TOP WITH REHEAT
   Return Air Path Node,Inlet Node,5,NODE 174,VAV_TOP WITH REHEAT
   Return Air Path Node,Inlet Node,6,NODE 179,VAV_TOP WITH REHEAT
   Return Air Path Node,Inlet Node,7,NODE 184,VAV_TOP WITH REHEAT
! ===============================================================
! #Outdoor Air Nodes,<Number of Outdoor Air Nodes>
 #Outdoor Air Nodes,9
! <Outdoor Air Node>,<NodeNumber>,<Node Name>
 Outdoor Air Node,264,NODE 197
 Outdoor Air Node,265,NODE 229
 Outdoor Air Node,266,NODE 242
 Outdoor Air Node,267,NODE 255
 Outdoor Air Node,268,NODE 268
 Outdoor Air Node,269,NODE 80
 Outdoor Air Node,270,NODE 119
 Outdoor Air Node,271,NODE 158
 Outdoor Air Node,272,MODEL OUTDOOR AIR NODE
! ===============================================================
! <#Component Sets>,<Number of Component Sets>
 #Component Sets,159
! <Component Set>,<Component Set Count>,<Parent Object Type>,<Parent Object Name>,<Component Type>,<Component Name>,<Inlet Node ID>,<Outlet Node ID>,<Description>
 Component Set,1,BRANCH,CAV_BAS MAIN BRANCH,AIRLOOPHVAC:OUTDOORAIRSYSTEM,CAV_BAS OA SYS,NODE 186,NODE 199,Air Nodes
 Component Set,2,BRANCH,CAV_BAS MAIN BRANCH,COIL:COOLING:WATER,CAV_BAS CLG COIL,NODE 199,NODE 196,Air Nodes
 Component Set,3,BRANCH,CAV_BAS MAIN BRANCH,COIL:HEATING:WATER,CAV_BAS MAIN HTG COIL,NODE 196,NODE 191,Air Nodes
 Component Set,4,BRANCH,CAV_BAS MAIN BRANCH,FAN:CONSTANTVOLUME,CAV_BAS FAN,NODE 191,NODE 187,Air Nodes
 Component Set,5,BRANCH,DATACENTER_BASEMENT_ZN_6 ZN PSZ-AC DATA CENTER MAIN BRANCH,AIRLOOPHVAC:OUTDOORAIRSYSTEM,DATACENTER_BASEMENT_ZN_6 ZN PSZ-AC DATA CENTER OA SYS,NODE 220,NODE 231,Air Nodes
 Component Set,6,BRANCH,DATACENTER_BASEMENT_ZN_6 ZN PSZ-AC DATA CENTER MAIN BRANCH,AIRLOOPHVAC:UNITARYSYSTEM,DATACENTER_BASEMENT_ZN_6 ZN UNITARY HP,NODE 231,NODE 221,Air Nodes
 Component Set,7,BRANCH,DATACENTER_BOT_ZN_6 ZN PSZ-AC DATA CENTER MAIN BRANCH,AIRLOOPHVAC:OUTDOORAIRSYSTEM,DATACENTER_BOT_ZN_6 ZN PSZ-AC DATA CENTER OA SYS,NODE 233,NODE 244,Air Nodes
 Component Set,8,BRANCH,DATACENTER_BOT_ZN_6 ZN PSZ-AC DATA CENTER MAIN BRANCH,AIRLOOPHVAC:UNITARYSYSTEM,DATACENTER_BOT_ZN_6 ZN UNITARY HP,NODE 244,NODE 234,Air Nodes
 Component Set,9,BRANCH,DATACENTER_MID_ZN_6 ZN PSZ-AC DATA CENTER MAIN BRANCH,AIRLOOPHVAC:OUTDOORAIRSYSTEM,DATACENTER_MID_ZN_6 ZN PSZ-AC DATA CENTER OA SYS,NODE 246,NODE 257,Air Nodes
 Component Set,10,BRANCH,DATACENTER_MID_ZN_6 ZN PSZ-AC DATA CENTER MAIN BRANCH,AIRLOOPHVAC:UNITARYSYSTEM,DATACENTER_MID_ZN_6 ZN UNITARY HP,NODE 257,NODE 247,Air Nodes
 Component Set,11,BRANCH,DATACENTER_TOP_ZN_6 ZN PSZ-AC DATA CENTER MAIN BRANCH,AIRLOOPHVAC:OUTDOORAIRSYSTEM,DATACENTER_TOP_ZN_6 ZN PSZ-AC DATA CENTER OA SYS,NODE 259,NODE 270,Air Nodes
 Component Set,12,BRANCH,DATACENTER_TOP_ZN_6 ZN PSZ-AC DATA CENTER MAIN BRANCH,AIRLOOPHVAC:UNITARYSYSTEM,DATACENTER_TOP_ZN_6 ZN UNITARY HP,NODE 270,NODE 260,Air Nodes
 Component Set,13,BRANCH,VAV_BOT WITH REHEAT MAIN BRANCH,AIRLOOPHVAC:OUTDOORAIRSYSTEM,VAV_BOT WITH REHEAT OA SYS,NODE 69,NODE 82,Air Nodes
 Component Set,14,BRANCH,VAV_BOT WITH REHEAT MAIN BRANCH,COIL:COOLING:WATER,VAV_BOT WITH REHEAT CLG COIL,NODE 82,NODE 77,Air Nodes
 Component Set,15,BRANCH,VAV_BOT WITH REHEAT MAIN BRANCH,COIL:HEATING:WATER,VAV_BOT WITH REHEAT MAIN HTG COIL,NODE 77,NODE 74,Air Nodes
 Component Set,16,BRANCH,VAV_BOT WITH REHEAT MAIN BRANCH,FAN:VARIABLEVOLUME,VAV_BOT WITH REHEAT FAN,NODE 74,NODE 70,Air Nodes
 Component Set,17,BRANCH,VAV_MID WITH REHEAT MAIN BRANCH,AIRLOOPHVAC:OUTDOORAIRSYSTEM,VAV_MID WITH REHEAT OA SYS,NODE 108,NODE 121,Air Nodes
 Component Set,18,BRANCH,VAV_MID WITH REHEAT MAIN BRANCH,COIL:COOLING:WATER,VAV_MID WITH REHEAT CLG COIL,NODE 121,NODE 116,Air Nodes
 Component Set,19,BRANCH,VAV_MID WITH REHEAT MAIN BRANCH,COIL:HEATING:WATER,VAV_MID WITH REHEAT MAIN HTG COIL,NODE 116,NODE 113,Air Nodes
 Component Set,20,BRANCH,VAV_MID WITH REHEAT MAIN BRANCH,FAN:VARIABLEVOLUME,VAV_MID WITH REHEAT FAN,NODE 113,NODE 109,Air Nodes
 Component Set,21,BRANCH,VAV_TOP WITH REHEAT MAIN BRANCH,AIRLOOPHVAC:OUTDOORAIRSYSTEM,VAV_TOP WITH REHEAT OA SYS,NODE 147,NODE 160,Air Nodes
 Component Set,22,BRANCH,VAV_TOP WITH REHEAT MAIN BRANCH,COIL:COOLING:WATER,VAV_TOP WITH REHEAT CLG COIL,NODE 160,NODE 155,Air Nodes
 Component Set,23,BRANCH,VAV_TOP WITH REHEAT MAIN BRANCH,COIL:HEATING:WATER,VAV_TOP WITH REHEAT MAIN HTG COIL,NODE 155,NODE 152,Air Nodes
 Component Set,24,BRANCH,VAV_TOP WITH REHEAT MAIN BRANCH,FAN:VARIABLEVOLUME,VAV_TOP WITH REHEAT FAN,NODE 152,NODE 148,Air Nodes
 Component Set,25,BRANCH,CHILLED WATER LOOP SUPPLY INLET BRANCH,PUMP:CONSTANTSPEED,CHILLED WATER LOOP PRIMARY PUMP,NODE 52,NODE 58,Water Nodes
 Component Set,26,BRANCH,CHILLED WATER LOOP SUPPLY BRANCH 1,CHILLER:ELECTRIC:EIR,90.1-2010 WATERCOOLED  CENTRIFUGAL CHILLER 0 739TONS 0.6KW/TON,NODE 54,NODE 60,Chilled Water Nodes
 Component Set,27,BRANCH,CHILLED WATER LOOP SUPPLY BRANCH 2,PIPE:ADIABATIC,PIPE ADIABATIC 11,NODE 63,NODE 64,Pipe Nodes
 Component Set,28,BRANCH,CHILLED WATER LOOP SUPPLY OUTLET BRANCH,PIPE:ADIABATIC,PIPE ADIABATIC 13,NODE 66,NODE 53,Pipe Nodes
 Component Set,29,BRANCH,CHILLED WATER LOOP DEMAND INLET BRANCH,PIPE:ADIABATIC,PIPE ADIABATIC 14,NODE 55,NODE 67,Pipe Nodes
 Component Set,30,BRANCH,CHILLED WATER LOOP DEMAND INLET BRANCH,PUMP:VARIABLESPEED,CHILLED WATER LOOP SECONDARY PUMP,NODE 67,NODE 59,Water Nodes
 Component Set,31,BRANCH,CHILLED WATER LOOP DEMAND BRANCH 1,PIPE:ADIABATIC,PIPE ADIABATIC 12,NODE 57,NODE 65,Pipe Nodes
 Component Set,32,BRANCH,CHILLED WATER LOOP DEMAND BRANCH 2,COIL:COOLING:WATER,VAV_BOT WITH REHEAT CLG COIL,NODE 78,NODE 79,Water Nodes
 Component Set,33,BRANCH,CHILLED WATER LOOP DEMAND BRANCH 3,COIL:COOLING:WATER,VAV_MID WITH REHEAT CLG COIL,NODE 117,NODE 118,Water Nodes
 Component Set,34,BRANCH,CHILLED WATER LOOP DEMAND BRANCH 4,COIL:COOLING:WATER,VAV_TOP WITH REHEAT CLG COIL,NODE 156,NODE 157,Water Nodes
 Component Set,35,BRANCH,CHILLED WATER LOOP DEMAND BRANCH 5,COIL:COOLING:WATER,CAV_BAS CLG COIL,NODE 194,NODE 195,Water Nodes
 Component Set,36,BRANCH,CHILLED WATER LOOP DEMAND BYPASS BRANCH,PIPE:ADIABATIC,CHILLED WATER LOOP DEMAND BYPASS PIPE,CHILLED WATER LOOP DEMAND BYPASS PIPE INLET NODE,CHILLED WATER LOOP DEMAND BYPASS PIPE OUTLET NODE,Pipe Nodes
 Component Set,37,BRANCH,CHILLED WATER LOOP DEMAND OUTLET BRANCH,PIPE:ADIABATIC,PIPE ADIABATIC 15,NODE 68,NODE 56,Pipe Nodes
 Component Set,38,BRANCH,CONDENSER WATER LOOP SUPPLY INLET BRANCH,PUMP:CONSTANTSPEED,CONDENSER WATER LOOP PUMP,NODE 38,NODE 44,Water Nodes
 Component Set,39,BRANCH,CONDENSER WATER LOOP SUPPLY BRANCH 1,COOLINGTOWER:SINGLESPEED,CENTRIFUGAL FAN CYCLING OPEN COOLING TOWER 38.2 GPM/HP,NODE 40,NODE 45,Chilled Water Nodes
 Component Set,40,BRANCH,CONDENSER WATER LOOP SUPPLY BRANCH 2,PIPE:ADIABATIC,PIPE ADIABATIC 6,NODE 46,NODE 47,Pipe Nodes
 Component Set,41,BRANCH,CONDENSER WATER LOOP SUPPLY OUTLET BRANCH,PIPE:ADIABATIC,PIPE ADIABATIC 8,NODE 49,NODE 39,Pipe Nodes
 Component Set,42,BRANCH,CONDENSER WATER LOOP DEMAND INLET BRANCH,PIPE:ADIABATIC,PIPE ADIABATIC 9,NODE 41,NODE 50,Pipe Nodes
 Component Set,43,BRANCH,CONDENSER WATER LOOP DEMAND BRANCH 1,PIPE:ADIABATIC,PIPE ADIABATIC 7,NODE 43,NODE 48,Pipe Nodes
 Component Set,44,BRANCH,CONDENSER WATER LOOP DEMAND BRANCH 2,CHILLER:ELECTRIC:EIR,90.1-2010 WATERCOOLED  CENTRIFUGAL CHILLER 0 739TONS 0.6KW/TON,NODE 61,NODE 62,Condenser Water Nodes
 Component Set,45,BRANCH,CONDENSER WATER LOOP DEMAND BYPASS BRANCH,PIPE:ADIABATIC,CONDENSER WATER LOOP DEMAND BYPASS PIPE,CONDENSER WATER LOOP DEMAND BYPASS PIPE INLET NODE,CONDENSER WATER LOOP DEMAND BYPASS PIPE OUTLET NODE,Pipe Nodes
 Component Set,46,BRANCH,CONDENSER WATER LOOP DEMAND OUTLET BRANCH,PIPE:ADIABATIC,PIPE ADIABATIC 10,NODE 51,NODE 42,Pipe Nodes
 Component Set,47,BRANCH,HEAT PUMP LOOP SUPPLY INLET BRANCH,PUMP:CONSTANTSPEED,HEAT PUMP LOOP PUMP,NODE 204,NODE 210,Water Nodes
 Component Set,48,BRANCH,HEAT PUMP LOOP SUPPLY BRANCH 1,COOLINGTOWER:TWOSPEED,HEAT PUMP LOOP CENTRAL TOWER 20.0 GPM/HP,NODE 206,NODE 211,Chilled Water Nodes
 Component Set,49,BRANCH,HEAT PUMP LOOP SUPPLY BRANCH 2,BOILER:HOTWATER,HEAT PUMP LOOP SUP BOILER 1425KBTU/HR 0.8 THERMAL EFF,NODE 212,NODE 213,Hot Water Nodes
 Component Set,50,BRANCH,HEAT PUMP LOOP SUPPLY BRANCH 3,PIPE:ADIABATIC,HEAT PUMP LOOP SUPPLY BYPASS,NODE 214,NODE 215,Pipe Nodes
 Component Set,51,BRANCH,HEAT PUMP LOOP SUPPLY OUTLET BRANCH,PIPE:ADIABATIC,HEAT PUMP LOOP SUPPLY OUTLET,NODE 217,NODE 205,Pipe Nodes
 Component Set,52,BRANCH,HEAT PUMP LOOP DEMAND INLET BRANCH,PIPE:ADIABATIC,HEAT PUMP LOOP DEMAND INLET,NODE 207,NODE 218,Pipe Nodes
 Component Set,53,BRANCH,HEAT PUMP LOOP DEMAND BRANCH 1,PIPE:ADIABATIC,HEAT PUMP LOOP DEMAND BYPASS,NODE 209,NODE 216,Pipe Nodes
 Component Set,54,BRANCH,HEAT PUMP LOOP DEMAND BRANCH 2,COIL:HEATING:WATERTOAIRHEATPUMP:EQUATIONFIT,DATACENTER_BASEMENT_ZN_6 ZN PSZ-AC DATA CENTER WATER-TO-AIR HP HTG COIL,NODE 225,NODE 226,Water Nodes
 Component Set,55,BRANCH,HEAT PUMP LOOP DEMAND BRANCH 3,COIL:COOLING:WATERTOAIRHEATPUMP:EQUATIONFIT,DATACENTER_BASEMENT_ZN_6 ZN PSZ-AC DATA CENTER WATER-TO-AIR HP CLG COIL,NODE 227,NODE 228,Water Nodes
 Component Set,56,BRANCH,HEAT PUMP LOOP DEMAND BRANCH 4,COIL:HEATING:WATERTOAIRHEATPUMP:EQUATIONFIT,DATACENTER_BOT_ZN_6 ZN PSZ-AC DATA CENTER WATER-TO-AIR HP HTG COIL,NODE 238,NODE 239,Water Nodes
 Component Set,57,BRANCH,HEAT PUMP LOOP DEMAND BRANCH 5,COIL:COOLING:WATERTOAIRHEATPUMP:EQUATIONFIT,DATACENTER_BOT_ZN_6 ZN PSZ-AC DATA CENTER WATER-TO-AIR HP CLG COIL,NODE 240,NODE 241,Water Nodes
 Component Set,58,BRANCH,HEAT PUMP LOOP DEMAND BRANCH 6,COIL:HEATING:WATERTOAIRHEATPUMP:EQUATIONFIT,DATACENTER_MID_ZN_6 ZN PSZ-AC DATA CENTER WATER-TO-AIR HP HTG COIL,NODE 251,NODE 252,Water Nodes
 Component Set,59,BRANCH,HEAT PUMP LOOP DEMAND BRANCH 7,COIL:COOLING:WATERTOAIRHEATPUMP:EQUATIONFIT,DATACENTER_MID_ZN_6 ZN PSZ-AC DATA CENTER WATER-TO-AIR HP CLG COIL,NODE 253,NODE 254,Water Nodes
 Component Set,60,BRANCH,HEAT PUMP LOOP DEMAND BRANCH 8,COIL:HEATING:WATERTOAIRHEATPUMP:EQUATIONFIT,DATACENTER_TOP_ZN_6 ZN PSZ-AC DATA CENTER WATER-TO-AIR HP HTG COIL,NODE 264,NODE 265,Water Nodes
 Component Set,61,BRANCH,HEAT PUMP LOOP DEMAND BRANCH 9,COIL:COOLING:WATERTOAIRHEATPUMP:EQUATIONFIT,DATACENTER_TOP_ZN_6 ZN PSZ-AC DATA CENTER WATER-TO-AIR HP CLG COIL,NODE 266,NODE 267,Water Nodes
 Component Set,62,BRANCH,HEAT PUMP LOOP DEMAND BYPASS BRANCH,PIPE:ADIABATIC,HEAT PUMP LOOP DEMAND BYPASS PIPE,HEAT PUMP LOOP DEMAND BYPASS PIPE INLET NODE,HEAT PUMP LOOP DEMAND BYPASS PIPE OUTLET NODE,Pipe Nodes
 Component Set,63,BRANCH,HEAT PUMP LOOP DEMAND OUTLET BRANCH,PIPE:ADIABATIC,HEAT PUMP LOOP DEMAND OUTLET,NODE 219,NODE 208,Pipe Nodes
 Component Set,64,BRANCH,HOT WATER LOOP SUPPLY INLET BRANCH,PUMP:VARIABLESPEED,HOT WATER LOOP PUMP,NODE 24,NODE 30,Water Nodes
 Component Set,65,BRANCH,HOT WATER LOOP SUPPLY BRANCH 1,BOILER:HOTWATER,HOT WATER LOOP BOILER 7217KBTU/HR 0.8 THERMAL EFF,NODE 26,NODE 31,Hot Water Nodes
 Component Set,66,BRANCH,HOT WATER LOOP SUPPLY BRANCH 2,PIPE:ADIABATIC,PIPE ADIABATIC 1,NODE 32,NODE 33,Pipe Nodes
 Component Set,67,BRANCH,HOT WATER LOOP SUPPLY OUTLET BRANCH,PIPE:ADIABATIC,PIPE ADIABATIC 3,NODE 35,NODE 25,Pipe Nodes
 Component Set,68,BRANCH,HOT WATER LOOP DEMAND INLET BRANCH,PIPE:ADIABATIC,PIPE ADIABATIC 4,NODE 27,NODE 36,Pipe Nodes
 Component Set,69,BRANCH,HOT WATER LOOP DEMAND BRANCH 1,PIPE:ADIABATIC,PIPE ADIABATIC 2,NODE 29,NODE 34,Pipe Nodes
 Component Set,70,BRANCH,HOT WATER LOOP DEMAND BRANCH 2,COIL:HEATING:WATER,VAV_BOT WITH REHEAT MAIN HTG COIL,NODE 75,NODE 76,Water Nodes
 Component Set,71,BRANCH,HOT WATER LOOP DEMAND BRANCH 3,COIL:HEATING:WATER,PERIMETER_BOT_ZN_1 ZN RHT COIL,NODE 83,NODE 84,Water Nodes
 Component Set,72,BRANCH,HOT WATER LOOP DEMAND BRANCH 4,COIL:HEATING:WATER,PERIMETER_BOT_ZN_2 ZN RHT COIL,NODE 87,NODE 89,Water Nodes
 Component Set,73,BRANCH,HOT WATER LOOP DEMAND BRANCH 5,COIL:HEATING:WATER,PERIMETER_BOT_ZN_3 ZN RHT COIL,NODE 93,NODE 94,Water Nodes
 Component Set,74,BRANCH,HOT WATER LOOP DEMAND BRANCH 6,COIL:HEATING:WATER,PERIMETER_BOT_ZN_4 ZN RHT COIL,NODE 98,NODE 99,Water Nodes
 Component Set,75,BRANCH,HOT WATER LOOP DEMAND BRANCH 7,COIL:HEATING:WATER,CORE_BOTTOM ZN RHT COIL,NODE 103,NODE 104,Water Nodes
 Component Set,76,BRANCH,HOT WATER LOOP DEMAND BRANCH 8,COIL:HEATING:WATER,VAV_MID WITH REHEAT MAIN HTG COIL,NODE 114,NODE 115,Water Nodes
 Component Set,77,BRANCH,HOT WATER LOOP DEMAND BRANCH 9,COIL:HEATING:WATER,PERIMETER_MID_ZN_1 ZN RHT COIL,NODE 122,NODE 123,Water Nodes
 Component Set,78,BRANCH,HOT WATER LOOP DEMAND BRANCH 10,COIL:HEATING:WATER,PERIMETER_MID_ZN_2 ZN RHT COIL,NODE 126,NODE 128,Water Nodes
 Component Set,79,BRANCH,HOT WATER LOOP DEMAND BRANCH 11,COIL:HEATING:WATER,PERIMETER_MID_ZN_3 ZN RHT COIL,NODE 132,NODE 133,Water Nodes
 Component Set,80,BRANCH,HOT WATER LOOP DEMAND BRANCH 12,COIL:HEATING:WATER,PERIMETER_MID_ZN_4 ZN RHT COIL,NODE 137,NODE 138,Water Nodes
 Component Set,81,BRANCH,HOT WATER LOOP DEMAND BRANCH 13,COIL:HEATING:WATER,CORE_MID ZN RHT COIL,NODE 142,NODE 143,Water Nodes
 Component Set,82,BRANCH,HOT WATER LOOP DEMAND BRANCH 14,COIL:HEATING:WATER,VAV_TOP WITH REHEAT MAIN HTG COIL,NODE 153,NODE 154,Water Nodes
 Component Set,83,BRANCH,HOT WATER LOOP DEMAND BRANCH 15,COIL:HEATING:WATER,PERIMETER_TOP_ZN_1 ZN RHT COIL,NODE 161,NODE 162,Water Nodes
 Component Set,84,BRANCH,HOT WATER LOOP DEMAND BRANCH 16,COIL:HEATING:WATER,PERIMETER_TOP_ZN_2 ZN RHT COIL,NODE 165,NODE 167,Water Nodes
 Component Set,85,BRANCH,HOT WATER LOOP DEMAND BRANCH 17,COIL:HEATING:WATER,PERIMETER_TOP_ZN_3 ZN RHT COIL,NODE 171,NODE 172,Water Nodes
 Component Set,86,BRANCH,HOT WATER LOOP DEMAND BRANCH 18,COIL:HEATING:WATER,PERIMETER_TOP_ZN_4 ZN RHT COIL,NODE 176,NODE 177,Water Nodes
 Component Set,87,BRANCH,HOT WATER LOOP DEMAND BRANCH 19,COIL:HEATING:WATER,CORE_TOP ZN RHT COIL,NODE 181,NODE 182,Water Nodes
 Component Set,88,BRANCH,HOT WATER LOOP DEMAND BRANCH 20,COIL:HEATING:WATER,CAV_BAS MAIN HTG COIL,NODE 192,NODE 193,Water Nodes
 Component Set,89,BRANCH,HOT WATER LOOP DEMAND BRANCH 21,COIL:HEATING:WATER,BASEMENT ZN RHT COIL,NODE 200,NODE 201,Water Nodes
 Component Set,90,BRANCH,HOT WATER LOOP DEMAND BYPASS BRANCH,PIPE:ADIABATIC,HOT WATER LOOP DEMAND BYPASS PIPE,HOT WATER LOOP DEMAND BYPASS PIPE INLET NODE,HOT WATER LOOP DEMAND BYPASS PIPE OUTLET NODE,Pipe Nodes
 Component Set,91,BRANCH,HOT WATER LOOP DEMAND OUTLET BRANCH,PIPE:ADIABATIC,PIPE ADIABATIC 5,NODE 37,NODE 28,Pipe Nodes
 Component Set,92,BRANCH,MAIN SERVICE WATER LOOP SUPPLY INLET BRANCH,PUMP:CONSTANTSPEED,SERVICE WATER LOOP PUMP,NODE 272,NODE 278,Water Nodes
 Component Set,93,BRANCH,MAIN SERVICE WATER LOOP SUPPLY BRANCH 1,WATERHEATER:MIXED,300GAL NATURAL GAS WATER HEATER - 300KBTU/HR 0.806 THERM EFF,NODE 274,NODE 279,Use Side Water Nodes
 Component Set,94,BRANCH,MAIN SERVICE WATER LOOP SUPPLY BRANCH 2,PIPE:ADIABATIC,PIPE ADIABATIC 16,NODE 280,NODE 281,Pipe Nodes
 Component Set,95,BRANCH,MAIN SERVICE WATER LOOP SUPPLY OUTLET BRANCH,PIPE:ADIABATIC,PIPE ADIABATIC 18,NODE 283,NODE 273,Pipe Nodes
 Component Set,96,BRANCH,MAIN SERVICE WATER LOOP DEMAND INLET BRANCH,PIPE:ADIABATIC,PIPE ADIABATIC 19,NODE 275,NODE 284,Pipe Nodes
 Component Set,97,BRANCH,MAIN SERVICE WATER LOOP DEMAND BRANCH 1,PIPE:ADIABATIC,PIPE ADIABATIC 17,NODE 277,NODE 282,Pipe Nodes
 Component Set,98,BRANCH,MAIN SERVICE WATER LOOP DEMAND BRANCH 2,WATERUSE:CONNECTIONS,WATER USE CONNECTIONS 1,NODE 286,NODE 287,DHW Nodes
 Component Set,99,BRANCH,MAIN SERVICE WATER LOOP DEMAND BRANCH 3,WATERUSE:CONNECTIONS,WATER USE CONNECTIONS 2,NODE 288,NODE 289,DHW Nodes
 Component Set,100,BRANCH,MAIN SERVICE WATER LOOP DEMAND BRANCH 4,WATERUSE:CONNECTIONS,WATER USE CONNECTIONS 3,NODE 290,NODE 291,DHW Nodes
 Component Set,101,BRANCH,MAIN SERVICE WATER LOOP DEMAND BYPASS BRANCH,PIPE:ADIABATIC,MAIN SERVICE WATER LOOP DEMAND BYPASS PIPE,MAIN SERVICE WATER LOOP DEMAND BYPASS PIPE INLET NODE,MAIN SERVICE WATER LOOP DEMAND BYPASS PIPE OUTLET NODE,Pipe Nodes
 Component Set,102,BRANCH,MAIN SERVICE WATER LOOP DEMAND OUTLET BRANCH,PIPE:ADIABATIC,PIPE ADIABATIC 20,NODE 285,NODE 276,Pipe Nodes
 Component Set,103,ZONEHVAC:AIRDISTRIBUTIONUNIT,ADU BASEMENT ZN VAV TERM,AIRTERMINAL:SINGLEDUCT:VAV:REHEAT,BASEMENT ZN VAV TERM,NODE 203,NODE 190,Air Nodes
 Component Set,104,ZONEHVAC:AIRDISTRIBUTIONUNIT,ADU CORE_BOTTOM ZN VAV TERM,AIRTERMINAL:SINGLEDUCT:VAV:REHEAT,CORE_BOTTOM ZN VAV TERM,NODE 107,NODE 105,Air Nodes
 Component Set,105,ZONEHVAC:AIRDISTRIBUTIONUNIT,ADU CORE_MID ZN VAV TERM,AIRTERMINAL:SINGLEDUCT:VAV:REHEAT,CORE_MID ZN VAV TERM,NODE 146,NODE 144,Air Nodes
 Component Set,106,ZONEHVAC:AIRDISTRIBUTIONUNIT,ADU CORE_TOP ZN VAV TERM,AIRTERMINAL:SINGLEDUCT:VAV:REHEAT,CORE_TOP ZN VAV TERM,NODE 185,NODE 183,Air Nodes
 Component Set,107,ZONEHVAC:AIRDISTRIBUTIONUNIT,ADU PERIMETER_BOT_ZN_1 ZN VAV TERM,AIRTERMINAL:SINGLEDUCT:VAV:REHEAT,PERIMETER_BOT_ZN_1 ZN VAV TERM,NODE 86,NODE 73,Air Nodes
 Component Set,108,ZONEHVAC:AIRDISTRIBUTIONUNIT,ADU PERIMETER_BOT_ZN_2 ZN VAV TERM,AIRTERMINAL:SINGLEDUCT:VAV:REHEAT,PERIMETER_BOT_ZN_2 ZN VAV TERM,NODE 92,NODE 90,Air Nodes
 Component Set,109,ZONEHVAC:AIRDISTRIBUTIONUNIT,ADU PERIMETER_BOT_ZN_3 ZN VAV TERM,AIRTERMINAL:SINGLEDUCT:VAV:REHEAT,PERIMETER_BOT_ZN_3 ZN VAV TERM,NODE 97,NODE 95,Air Nodes
 Component Set,110,ZONEHVAC:AIRDISTRIBUTIONUNIT,ADU PERIMETER_BOT_ZN_4 ZN VAV TERM,AIRTERMINAL:SINGLEDUCT:VAV:REHEAT,PERIMETER_BOT_ZN_4 ZN VAV TERM,NODE 102,NODE 100,Air Nodes
 Component Set,111,ZONEHVAC:AIRDISTRIBUTIONUNIT,ADU PERIMETER_MID_ZN_1 ZN VAV TERM,AIRTERMINAL:SINGLEDUCT:VAV:REHEAT,PERIMETER_MID_ZN_1 ZN VAV TERM,NODE 125,NODE 112,Air Nodes
 Component Set,112,ZONEHVAC:AIRDISTRIBUTIONUNIT,ADU PERIMETER_MID_ZN_2 ZN VAV TERM,AIRTERMINAL:SINGLEDUCT:VAV:REHEAT,PERIMETER_MID_ZN_2 ZN VAV TERM,NODE 131,NODE 129,Air Nodes
 Component Set,113,ZONEHVAC:AIRDISTRIBUTIONUNIT,ADU PERIMETER_MID_ZN_3 ZN VAV TERM,AIRTERMINAL:SINGLEDUCT:VAV:REHEAT,PERIMETER_MID_ZN_3 ZN VAV TERM,NODE 136,NODE 134,Air Nodes
 Component Set,114,ZONEHVAC:AIRDISTRIBUTIONUNIT,ADU PERIMETER_MID_ZN_4 ZN VAV TERM,AIRTERMINAL:SINGLEDUCT:VAV:REHEAT,PERIMETER_MID_ZN_4 ZN VAV TERM,NODE 141,NODE 139,Air Nodes
 Component Set,115,ZONEHVAC:AIRDISTRIBUTIONUNIT,ADU PERIMETER_TOP_ZN_1 ZN VAV TERM,AIRTERMINAL:SINGLEDUCT:VAV:REHEAT,PERIMETER_TOP_ZN_1 ZN VAV TERM,NODE 164,NODE 151,Air Nodes
 Component Set,116,ZONEHVAC:AIRDISTRIBUTIONUNIT,ADU PERIMETER_TOP_ZN_2 ZN VAV TERM,AIRTERMINAL:SINGLEDUCT:VAV:REHEAT,PERIMETER_TOP_ZN_2 ZN VAV TERM,NODE 170,NODE 168,Air Nodes
 Component Set,117,ZONEHVAC:AIRDISTRIBUTIONUNIT,ADU PERIMETER_TOP_ZN_3 ZN VAV TERM,AIRTERMINAL:SINGLEDUCT:VAV:REHEAT,PERIMETER_TOP_ZN_3 ZN VAV TERM,NODE 175,NODE 173,Air Nodes
 Component Set,118,ZONEHVAC:AIRDISTRIBUTIONUNIT,ADU PERIMETER_TOP_ZN_4 ZN VAV TERM,AIRTERMINAL:SINGLEDUCT:VAV:REHEAT,PERIMETER_TOP_ZN_4 ZN VAV TERM,NODE 180,NODE 178,Air Nodes
 Component Set,119,AIRTERMINAL:SINGLEDUCT:VAV:REHEAT,BASEMENT ZN VAV TERM,COIL:HEATING:WATER,BASEMENT ZN RHT COIL,BASEMENT ZN VAV TERM DAMPER OUTLET,NODE 190,Air Nodes
 Component Set,120,AIRTERMINAL:SINGLEDUCT:VAV:REHEAT,CORE_BOTTOM ZN VAV TERM,COIL:HEATING:WATER,CORE_BOTTOM ZN RHT COIL,CORE_BOTTOM ZN VAV TERM DAMPER OUTLET,NODE 105,Air Nodes
 Component Set,121,AIRTERMINAL:SINGLEDUCT:VAV:REHEAT,CORE_MID ZN VAV TERM,COIL:HEATING:WATER,CORE_MID ZN RHT COIL,CORE_MID ZN VAV TERM DAMPER OUTLET,NODE 144,Air Nodes
 Component Set,122,AIRTERMINAL:SINGLEDUCT:VAV:REHEAT,CORE_TOP ZN VAV TERM,COIL:HEATING:WATER,CORE_TOP ZN RHT COIL,CORE_TOP ZN VAV TERM DAMPER OUTLET,NODE 183,Air Nodes
 Component Set,123,AIRTERMINAL:SINGLEDUCT:VAV:REHEAT,PERIMETER_BOT_ZN_1 ZN VAV TERM,COIL:HEATING:WATER,PERIMETER_BOT_ZN_1 ZN RHT COIL,PERIMETER_BOT_ZN_1 ZN VAV TERM DAMPER OUTLET,NODE 73,Air Nodes
 Component Set,124,AIRTERMINAL:SINGLEDUCT:VAV:REHEAT,PERIMETER_BOT_ZN_2 ZN VAV TERM,COIL:HEATING:WATER,PERIMETER_BOT_ZN_2 ZN RHT COIL,PERIMETER_BOT_ZN_2 ZN VAV TERM DAMPER OUTLET,NODE 90,Air Nodes
 Component Set,125,AIRTERMINAL:SINGLEDUCT:VAV:REHEAT,PERIMETER_BOT_ZN_3 ZN VAV TERM,COIL:HEATING:WATER,PERIMETER_BOT_ZN_3 ZN RHT COIL,PERIMETER_BOT_ZN_3 ZN VAV TERM DAMPER OUTLET,NODE 95,Air Nodes
 Component Set,126,AIRTERMINAL:SINGLEDUCT:VAV:REHEAT,PERIMETER_BOT_ZN_4 ZN VAV TERM,COIL:HEATING:WATER,PERIMETER_BOT_ZN_4 ZN RHT COIL,PERIMETER_BOT_ZN_4 ZN VAV TERM DAMPER OUTLET,NODE 100,Air Nodes
 Component Set,127,AIRTERMINAL:SINGLEDUCT:VAV:REHEAT,PERIMETER_MID_ZN_1 ZN VAV TERM,COIL:HEATING:WATER,PERIMETER_MID_ZN_1 ZN RHT COIL,PERIMETER_MID_ZN_1 ZN VAV TERM DAMPER OUTLET,NODE 112,Air Nodes
 Component Set,128,AIRTERMINAL:SINGLEDUCT:VAV:REHEAT,PERIMETER_MID_ZN_2 ZN VAV TERM,COIL:HEATING:WATER,PERIMETER_MID_ZN_2 ZN RHT COIL,PERIMETER_MID_ZN_2 ZN VAV TERM DAMPER OUTLET,NODE 129,Air Nodes
 Component Set,129,AIRTERMINAL:SINGLEDUCT:VAV:REHEAT,PERIMETER_MID_ZN_3 ZN VAV TERM,COIL:HEATING:WATER,PERIMETER_MID_ZN_3 ZN RHT COIL,PERIMETER_MID_ZN_3 ZN VAV TERM DAMPER OUTLET,NODE 134,Air Nodes
 Component Set,130,AIRTERMINAL:SINGLEDUCT:VAV:REHEAT,PERIMETER_MID_ZN_4 ZN VAV TERM,COIL:HEATING:WATER,PERIMETER_MID_ZN_4 ZN RHT COIL,PERIMETER_MID_ZN_4 ZN VAV TERM DAMPER OUTLET,NODE 139,Air Nodes
 Component Set,131,AIRTERMINAL:SINGLEDUCT:VAV:REHEAT,PERIMETER_TOP_ZN_1 ZN VAV TERM,COIL:HEATING:WATER,PERIMETER_TOP_ZN_1 ZN RHT COIL,PERIMETER_TOP_ZN_1 ZN VAV TERM DAMPER OUTLET,NODE 151,Air Nodes
 Component Set,132,AIRTERMINAL:SINGLEDUCT:VAV:REHEAT,PERIMETER_TOP_ZN_2 ZN VAV TERM,COIL:HEATING:WATER,PERIMETER_TOP_ZN_2 ZN RHT COIL,PERIMETER_TOP_ZN_2 ZN VAV TERM DAMPER OUTLET,NODE 168,Air Nodes
 Component Set,133,AIRTERMINAL:SINGLEDUCT:VAV:REHEAT,PERIMETER_TOP_ZN_3 ZN VAV TERM,COIL:HEATING:WATER,PERIMETER_TOP_ZN_3 ZN RHT COIL,PERIMETER_TOP_ZN_3 ZN VAV TERM DAMPER OUTLET,NODE 173,Air Nodes
 Component Set,134,AIRTERMINAL:SINGLEDUCT:VAV:REHEAT,PERIMETER_TOP_ZN_4 ZN VAV TERM,COIL:HEATING:WATER,PERIMETER_TOP_ZN_4 ZN RHT COIL,PERIMETER_TOP_ZN_4 ZN VAV TERM DAMPER OUTLET,NODE 178,Air Nodes
 Component Set,135,AIRLOOPHVAC:OUTDOORAIRSYSTEM,CAV_BAS OA SYS,OUTDOORAIR:MIXER,CAV_BAS OA SYS OUTDOOR AIR MIXER,NODE 197,NODE 199,Air Nodes
 Component Set,136,AIRLOOPHVAC:OUTDOORAIRSYSTEM,DATACENTER_BASEMENT_ZN_6 ZN PSZ-AC DATA CENTER OA SYS,OUTDOORAIR:MIXER,DATACENTER_BASEMENT_ZN_6 ZN PSZ-AC DATA CENTER OA SYS OUTDOOR AIR MIXER,NODE 229,NODE 231,Air Nodes
 Component Set,137,AIRLOOPHVAC:OUTDOORAIRSYSTEM,DATACENTER_BOT_ZN_6 ZN PSZ-AC DATA CENTER OA SYS,OUTDOORAIR:MIXER,DATACENTER_BOT_ZN_6 ZN PSZ-AC DATA CENTER OA SYS OUTDOOR AIR MIXER,NODE 242,NODE 244,Air Nodes
 Component Set,138,AIRLOOPHVAC:OUTDOORAIRSYSTEM,DATACENTER_MID_ZN_6 ZN PSZ-AC DATA CENTER OA SYS,OUTDOORAIR:MIXER,DATACENTER_MID_ZN_6 ZN PSZ-AC DATA CENTER OA SYS OUTDOOR AIR MIXER,NODE 255,NODE 257,Air Nodes
 Component Set,139,AIRLOOPHVAC:OUTDOORAIRSYSTEM,DATACENTER_TOP_ZN_6 ZN PSZ-AC DATA CENTER OA SYS,OUTDOORAIR:MIXER,DATACENTER_TOP_ZN_6 ZN PSZ-AC DATA CENTER OA SYS OUTDOOR AIR MIXER,NODE 268,NODE 270,Air Nodes
 Component Set,140,AIRLOOPHVAC:OUTDOORAIRSYSTEM,VAV_BOT WITH REHEAT OA SYS,OUTDOORAIR:MIXER,VAV_BOT WITH REHEAT OA SYS OUTDOOR AIR MIXER,NODE 80,NODE 82,Air Nodes
 Component Set,141,AIRLOOPHVAC:OUTDOORAIRSYSTEM,VAV_MID WITH REHEAT OA SYS,HEATEXCHANGER:AIRTOAIR:SENSIBLEANDLATENT,VAV_MID WITH REHEAT ERV,NODE 119,NODE 293,Process Air Nodes
 Component Set,142,AIRLOOPHVAC:OUTDOORAIRSYSTEM,VAV_MID WITH REHEAT OA SYS,OUTDOORAIR:MIXER,VAV_MID WITH REHEAT OA SYS OUTDOOR AIR MIXER,NODE 293,NODE 121,Air Nodes
 Component Set,143,AIRLOOPHVAC:OUTDOORAIRSYSTEM,VAV_TOP WITH REHEAT OA SYS,OUTDOORAIR:MIXER,VAV_TOP WITH REHEAT OA SYS OUTDOOR AIR MIXER,NODE 158,NODE 160,Air Nodes
 Component Set,144,AIRLOOPHVAC:UNITARYSYSTEM,DATACENTER_BASEMENT_ZN_6 ZN UNITARY HP,FAN:ONOFF,DATACENTER_BASEMENT_ZN_6 ZN PSZ-AC DATA CENTER FAN,NODE 231,DATACENTER_BASEMENT_ZN_6 ZN UNITARY HP FAN - COOLING COIL NODE,Air Nodes
 Component Set,145,AIRLOOPHVAC:UNITARYSYSTEM,DATACENTER_BOT_ZN_6 ZN UNITARY HP,FAN:ONOFF,DATACENTER_BOT_ZN_6 ZN PSZ-AC DATA CENTER FAN,NODE 244,DATACENTER_BOT_ZN_6 ZN UNITARY HP FAN - COOLING COIL NODE,Air Nodes
 Component Set,146,AIRLOOPHVAC:UNITARYSYSTEM,DATACENTER_MID_ZN_6 ZN UNITARY HP,FAN:ONOFF,DATACENTER_MID_ZN_6 ZN PSZ-AC DATA CENTER FAN,NODE 257,DATACENTER_MID_ZN_6 ZN UNITARY HP FAN - COOLING COIL NODE,Air Nodes
 Component Set,147,AIRLOOPHVAC:UNITARYSYSTEM,DATACENTER_TOP_ZN_6 ZN UNITARY HP,FAN:ONOFF,DATACENTER_TOP_ZN_6 ZN PSZ-AC DATA CENTER FAN,NODE 270,DATACENTER_TOP_ZN_6 ZN UNITARY HP FAN - COOLING COIL NODE,Air Nodes
 Component Set,148,AIRLOOPHVAC:UNITARYSYSTEM,DATACENTER_BASEMENT_ZN_6 ZN UNITARY HP,COIL:COOLING:WATERTOAIRHEATPUMP:EQUATIONFIT,DATACENTER_BASEMENT_ZN_6 ZN PSZ-AC DATA CENTER WATER-TO-AIR HP CLG COIL,DATACENTER_BASEMENT_ZN_6 ZN UNITARY HP FAN - COOLING COIL NODE,DATACENTER_BASEMENT_ZN_6 ZN UNITARY HP COOLING COIL - HEATING COIL NODE,Air Nodes
 Component Set,149,AIRLOOPHVAC:UNITARYSYSTEM,DATACENTER_BOT_ZN_6 ZN UNITARY HP,COIL:COOLING:WATERTOAIRHEATPUMP:EQUATIONFIT,DATACENTER_BOT_ZN_6 ZN PSZ-AC DATA CENTER WATER-TO-AIR HP CLG COIL,DATACENTER_BOT_ZN_6 ZN UNITARY HP FAN - COOLING COIL NODE,DATACENTER_BOT_ZN_6 ZN UNITARY HP COOLING COIL - HEATING COIL NODE,Air Nodes
 Component Set,150,AIRLOOPHVAC:UNITARYSYSTEM,DATACENTER_MID_ZN_6 ZN UNITARY HP,COIL:COOLING:WATERTOAIRHEATPUMP:EQUATIONFIT,DATACENTER_MID_ZN_6 ZN PSZ-AC DATA CENTER WATER-TO-AIR HP CLG COIL,DATACENTER_MID_ZN_6 ZN UNITARY HP FAN - COOLING COIL NODE,DATACENTER_MID_ZN_6 ZN UNITARY HP COOLING COIL - HEATING COIL NODE,Air Nodes
 Component Set,151,AIRLOOPHVAC:UNITARYSYSTEM,DATACENTER_TOP_ZN_6 ZN UNITARY HP,COIL:COOLING:WATERTOAIRHEATPUMP:EQUATIONFIT,DATACENTER_TOP_ZN_6 ZN PSZ-AC DATA CENTER WATER-TO-AIR HP CLG COIL,DATACENTER_TOP_ZN_6 ZN UNITARY HP FAN - COOLING COIL NODE,DATACENTER_TOP_ZN_6 ZN UNITARY HP COOLING COIL - HEATING COIL NODE,Air Nodes
 Component Set,152,AIRLOOPHVAC:UNITARYSYSTEM,DATACENTER_BASEMENT_ZN_6 ZN UNITARY HP,COIL:HEATING:WATERTOAIRHEATPUMP:EQUATIONFIT,DATACENTER_BASEMENT_ZN_6 ZN PSZ-AC DATA CENTER WATER-TO-AIR HP HTG COIL,DATACENTER_BASEMENT_ZN_6 ZN UNITARY HP COOLING COIL - HEATING COIL NODE,DATACENTER_BASEMENT_ZN_6 ZN UNITARY HP HEATING COIL - SUPPLEMENTAL COIL NODE,Air Nodes
 Component Set,153,AIRLOOPHVAC:UNITARYSYSTEM,DATACENTER_BOT_ZN_6 ZN UNITARY HP,COIL:HEATING:WATERTOAIRHEATPUMP:EQUATIONFIT,DATACENTER_BOT_ZN_6 ZN PSZ-AC DATA CENTER WATER-TO-AIR HP HTG COIL,DATACENTER_BOT_ZN_6 ZN UNITARY HP COOLING COIL - HEATING COIL NODE,DATACENTER_BOT_ZN_6 ZN UNITARY HP HEATING COIL - SUPPLEMENTAL COIL NODE,Air Nodes
 Component Set,154,AIRLOOPHVAC:UNITARYSYSTEM,DATACENTER_MID_ZN_6 ZN UNITARY HP,COIL:HEATING:WATERTOAIRHEATPUMP:EQUATIONFIT,DATACENTER_MID_ZN_6 ZN PSZ-AC DATA CENTER WATER-TO-AIR HP HTG COIL,DATACENTER_MID_ZN_6 ZN UNITARY HP COOLING COIL - HEATING COIL NODE,DATACENTER_MID_ZN_6 ZN UNITARY HP HEATING COIL - SUPPLEMENTAL COIL NODE,Air Nodes
 Component Set,155,AIRLOOPHVAC:UNITARYSYSTEM,DATACENTER_TOP_ZN_6 ZN UNITARY HP,COIL:HEATING:WATERTOAIRHEATPUMP:EQUATIONFIT,DATACENTER_TOP_ZN_6 ZN PSZ-AC DATA CENTER WATER-TO-AIR HP HTG COIL,DATACENTER_TOP_ZN_6 ZN UNITARY HP COOLING COIL - HEATING COIL NODE,DATACENTER_TOP_ZN_6 ZN UNITARY HP HEATING COIL - SUPPLEMENTAL COIL NODE,Air Nodes
 Component Set,156,AIRLOOPHVAC:UNITARYSYSTEM,DATACENTER_BASEMENT_ZN_6 ZN UNITARY HP,COIL:HEATING:ELECTRIC,DATACENTER_BASEMENT_ZN_6 ZN PSZ-AC DATA CENTER ELECTRIC BACKUP HTG COIL,DATACENTER_BASEMENT_ZN_6 ZN UNITARY HP HEATING COIL - SUPPLEMENTAL COIL NODE,NODE 221,Air Nodes
 Component Set,157,AIRLOOPHVAC:UNITARYSYSTEM,DATACENTER_BOT_ZN_6 ZN UNITARY HP,COIL:HEATING:ELECTRIC,DATACENTER_BOT_ZN_6 ZN PSZ-AC DATA CENTER ELECTRIC BACKUP HTG COIL,DATACENTER_BOT_ZN_6 ZN UNITARY HP HEATING COIL - SUPPLEMENTAL COIL NODE,NODE 234,Air Nodes
 Component Set,158,AIRLOOPHVAC:UNITARYSYSTEM,DATACENTER_MID_ZN_6 ZN UNITARY HP,COIL:HEATING:ELECTRIC,DATACENTER_MID_ZN_6 ZN PSZ-AC DATA CENTER ELECTRIC BACKUP HTG COIL,DATACENTER_MID_ZN_6 ZN UNITARY HP HEATING COIL - SUPPLEMENTAL COIL NODE,NODE 247,Air Nodes
 Component Set,159,AIRLOOPHVAC:UNITARYSYSTEM,DATACENTER_TOP_ZN_6 ZN UNITARY HP,COIL:HEATING:ELECTRIC,DATACENTER_TOP_ZN_6 ZN PSZ-AC DATA CENTER ELECTRIC BACKUP HTG COIL,DATACENTER_TOP_ZN_6 ZN UNITARY HP HEATING COIL - SUPPLEMENTAL COIL NODE,NODE 260,Air Nodes
! ===============================================================
! <# Plant Loops>,<Number of Plant Loops>
 #Plant Loops,5
! <Plant Loop>,<Plant Loop Name>,<Loop Type>,<Inlet Node Name>,<Outlet Node Name>,<Branch List>,<Connector List>
! <Plant Loop Connector>,<Connector Type>,<Connector Name>,<Loop Name>,<Loop Type>,<Number of Inlets/Outlets>
! <Plant Loop Connector Branches>,<Connector Node Count>,<Connector Type>,<Connector Name>,<Inlet Branch>,<Outlet Branch>,<Loop Name>,<Loop Type>
! <Plant Loop Connector Nodes>,<Connector Node Count>,<Connector Type>,<Connector Name>,<Inlet Node>,<Outlet Node>,<Loop Name>,<Loop Type>
! <Plant Loop Supply Connection>,<Plant Loop Name>,<Supply Side Outlet Node Name>,<Demand Side Inlet Node Name>
! <Plant Loop Return Connection>,<Plant Loop Name>,<Demand Side Outlet Node Name>,<Supply Side Inlet Node Name>
 Plant Loop,CHILLED WATER LOOP,Demand,NODE 55,NODE 56,CHILLED WATER LOOP DEMAND BRANCHES,CHILLED WATER LOOP DEMAND CONNECTOR LIST
   Plant Loop Connector,Splitter,CHILLED WATER LOOP DEMAND SPLITTER,CHILLED WATER LOOP,Demand,6
     Plant Loop Connector Branches,1,Splitter,CHILLED WATER LOOP DEMAND SPLITTER,CHILLED WATER LOOP DEMAND INLET BRANCH,CHILLED WATER LOOP DEMAND BRANCH 1,CHILLED WATER LOOP,Demand
     Plant Loop Connector Nodes,   1,Splitter,CHILLED WATER LOOP DEMAND SPLITTER,NODE 59,NODE 57,CHILLED WATER LOOP,Demand
     Plant Loop Connector Branches,2,Splitter,CHILLED WATER LOOP DEMAND SPLITTER,CHILLED WATER LOOP DEMAND INLET BRANCH,CHILLED WATER LOOP DEMAND BRANCH 2,CHILLED WATER LOOP,Demand
     Plant Loop Connector Nodes,   2,Splitter,CHILLED WATER LOOP DEMAND SPLITTER,NODE 59,NODE 78,CHILLED WATER LOOP,Demand
     Plant Loop Connector Branches,3,Splitter,CHILLED WATER LOOP DEMAND SPLITTER,CHILLED WATER LOOP DEMAND INLET BRANCH,CHILLED WATER LOOP DEMAND BRANCH 3,CHILLED WATER LOOP,Demand
     Plant Loop Connector Nodes,   3,Splitter,CHILLED WATER LOOP DEMAND SPLITTER,NODE 59,NODE 117,CHILLED WATER LOOP,Demand
     Plant Loop Connector Branches,4,Splitter,CHILLED WATER LOOP DEMAND SPLITTER,CHILLED WATER LOOP DEMAND INLET BRANCH,CHILLED WATER LOOP DEMAND BRANCH 4,CHILLED WATER LOOP,Demand
     Plant Loop Connector Nodes,   4,Splitter,CHILLED WATER LOOP DEMAND SPLITTER,NODE 59,NODE 156,CHILLED WATER LOOP,Demand
     Plant Loop Connector Branches,5,Splitter,CHILLED WATER LOOP DEMAND SPLITTER,CHILLED WATER LOOP DEMAND INLET BRANCH,CHILLED WATER LOOP DEMAND BRANCH 5,CHILLED WATER LOOP,Demand
     Plant Loop Connector Nodes,   5,Splitter,CHILLED WATER LOOP DEMAND SPLITTER,NODE 59,NODE 194,CHILLED WATER LOOP,Demand
     Plant Loop Connector Branches,6,Splitter,CHILLED WATER LOOP DEMAND SPLITTER,CHILLED WATER LOOP DEMAND INLET BRANCH,CHILLED WATER LOOP DEMAND BYPASS BRANCH,CHILLED WATER LOOP,Demand
     Plant Loop Connector Nodes,   6,Splitter,CHILLED WATER LOOP DEMAND SPLITTER,NODE 59,CHILLED WATER LOOP DEMAND BYPASS PIPE INLET NODE,CHILLED WATER LOOP,Demand
   Plant Loop Connector,Mixer,CHILLED WATER LOOP DEMAND MIXER,CHILLED WATER LOOP,Demand,6
     Plant Loop Connector Branches,1,Mixer,CHILLED WATER LOOP DEMAND MIXER,CHILLED WATER LOOP DEMAND BRANCH 1,CHILLED WATER LOOP DEMAND OUTLET BRANCH,CHILLED WATER LOOP,Demand
     Plant Loop Connector Nodes,   1,Mixer,CHILLED WATER LOOP DEMAND MIXER,NODE 65,NODE 68,CHILLED WATER LOOP,Demand
     Plant Loop Connector Branches,2,Mixer,CHILLED WATER LOOP DEMAND MIXER,CHILLED WATER LOOP DEMAND BRANCH 2,CHILLED WATER LOOP DEMAND OUTLET BRANCH,CHILLED WATER LOOP,Demand
     Plant Loop Connector Nodes,   2,Mixer,CHILLED WATER LOOP DEMAND MIXER,NODE 79,NODE 68,CHILLED WATER LOOP,Demand
     Plant Loop Connector Branches,3,Mixer,CHILLED WATER LOOP DEMAND MIXER,CHILLED WATER LOOP DEMAND BRANCH 3,CHILLED WATER LOOP DEMAND OUTLET BRANCH,CHILLED WATER LOOP,Demand
     Plant Loop Connector Nodes,   3,Mixer,CHILLED WATER LOOP DEMAND MIXER,NODE 118,NODE 68,CHILLED WATER LOOP,Demand
     Plant Loop Connector Branches,4,Mixer,CHILLED WATER LOOP DEMAND MIXER,CHILLED WATER LOOP DEMAND BRANCH 4,CHILLED WATER LOOP DEMAND OUTLET BRANCH,CHILLED WATER LOOP,Demand
     Plant Loop Connector Nodes,   4,Mixer,CHILLED WATER LOOP DEMAND MIXER,NODE 157,NODE 68,CHILLED WATER LOOP,Demand
     Plant Loop Connector Branches,5,Mixer,CHILLED WATER LOOP DEMAND MIXER,CHILLED WATER LOOP DEMAND BRANCH 5,CHILLED WATER LOOP DEMAND OUTLET BRANCH,CHILLED WATER LOOP,Demand
     Plant Loop Connector Nodes,   5,Mixer,CHILLED WATER LOOP DEMAND MIXER,NODE 195,NODE 68,CHILLED WATER LOOP,Demand
     Plant Loop Connector Branches,6,Mixer,CHILLED WATER LOOP DEMAND MIXER,CHILLED WATER LOOP DEMAND BYPASS BRANCH,CHILLED WATER LOOP DEMAND OUTLET BRANCH,CHILLED WATER LOOP,Demand
     Plant Loop Connector Nodes,   6,Mixer,CHILLED WATER LOOP DEMAND MIXER,CHILLED WATER LOOP DEMAND BYPASS PIPE OUTLET NODE,NODE 68,CHILLED WATER LOOP,Demand
 Plant Loop,CHILLED WATER LOOP,Supply,NODE 52,NODE 53,CHILLED WATER LOOP SUPPLY BRANCHES,CHILLED WATER LOOP SUPPLY CONNECTOR LIST
   Plant Loop Connector,Splitter,CHILLED WATER LOOP SUPPLY SPLITTER,CHILLED WATER LOOP,Supply,2
     Plant Loop Connector Branches,1,Splitter,CHILLED WATER LOOP SUPPLY SPLITTER,CHILLED WATER LOOP SUPPLY INLET BRANCH,CHILLED WATER LOOP SUPPLY BRANCH 1,CHILLED WATER LOOP,Supply
     Plant Loop Connector Nodes,   1,Splitter,CHILLED WATER LOOP SUPPLY SPLITTER,NODE 58,NODE 54,CHILLED WATER LOOP,Supply
     Plant Loop Connector Branches,2,Splitter,CHILLED WATER LOOP SUPPLY SPLITTER,CHILLED WATER LOOP SUPPLY INLET BRANCH,CHILLED WATER LOOP SUPPLY BRANCH 2,CHILLED WATER LOOP,Supply
     Plant Loop Connector Nodes,   2,Splitter,CHILLED WATER LOOP SUPPLY SPLITTER,NODE 58,NODE 63,CHILLED WATER LOOP,Supply
   Plant Loop Connector,Mixer,CHILLED WATER LOOP SUPPLY MIXER,CHILLED WATER LOOP,Supply,2
     Plant Loop Connector Branches,1,Mixer,CHILLED WATER LOOP SUPPLY MIXER,CHILLED WATER LOOP SUPPLY BRANCH 1,CHILLED WATER LOOP SUPPLY OUTLET BRANCH,CHILLED WATER LOOP,Supply
     Plant Loop Connector Nodes,   1,Mixer,CHILLED WATER LOOP SUPPLY MIXER,NODE 60,NODE 66,CHILLED WATER LOOP,Supply
     Plant Loop Connector Branches,2,Mixer,CHILLED WATER LOOP SUPPLY MIXER,CHILLED WATER LOOP SUPPLY BRANCH 2,CHILLED WATER LOOP SUPPLY OUTLET BRANCH,CHILLED WATER LOOP,Supply
     Plant Loop Connector Nodes,   2,Mixer,CHILLED WATER LOOP SUPPLY MIXER,NODE 64,NODE 66,CHILLED WATER LOOP,Supply
 Plant Loop Supply Connection,CHILLED WATER LOOP,NODE 53,NODE 55
 Plant Loop Return Connection,CHILLED WATER LOOP,NODE 56,NODE 52
 Plant Loop,CONDENSER WATER LOOP,Demand,NODE 41,NODE 42,CONDENSER WATER LOOP DEMAND BRANCHES,CONDENSER WATER LOOP DEMAND CONNECTOR LIST
   Plant Loop Connector,Splitter,CONDENSER WATER LOOP DEMAND SPLITTER,CONDENSER WATER LOOP,Demand,3
     Plant Loop Connector Branches,1,Splitter,CONDENSER WATER LOOP DEMAND SPLITTER,CONDENSER WATER LOOP DEMAND INLET BRANCH,CONDENSER WATER LOOP DEMAND BRANCH 1,CONDENSER WATER LOOP,Demand
     Plant Loop Connector Nodes,   1,Splitter,CONDENSER WATER LOOP DEMAND SPLITTER,NODE 50,NODE 43,CONDENSER WATER LOOP,Demand
     Plant Loop Connector Branches,2,Splitter,CONDENSER WATER LOOP DEMAND SPLITTER,CONDENSER WATER LOOP DEMAND INLET BRANCH,CONDENSER WATER LOOP DEMAND BRANCH 2,CONDENSER WATER LOOP,Demand
     Plant Loop Connector Nodes,   2,Splitter,CONDENSER WATER LOOP DEMAND SPLITTER,NODE 50,NODE 61,CONDENSER WATER LOOP,Demand
     Plant Loop Connector Branches,3,Splitter,CONDENSER WATER LOOP DEMAND SPLITTER,CONDENSER WATER LOOP DEMAND INLET BRANCH,CONDENSER WATER LOOP DEMAND BYPASS BRANCH,CONDENSER WATER LOOP,Demand
     Plant Loop Connector Nodes,   3,Splitter,CONDENSER WATER LOOP DEMAND SPLITTER,NODE 50,CONDENSER WATER LOOP DEMAND BYPASS PIPE INLET NODE,CONDENSER WATER LOOP,Demand
   Plant Loop Connector,Mixer,CONDENSER WATER LOOP DEMAND MIXER,CONDENSER WATER LOOP,Demand,3
     Plant Loop Connector Branches,1,Mixer,CONDENSER WATER LOOP DEMAND MIXER,CONDENSER WATER LOOP DEMAND BRANCH 1,CONDENSER WATER LOOP DEMAND OUTLET BRANCH,CONDENSER WATER LOOP,Demand
     Plant Loop Connector Nodes,   1,Mixer,CONDENSER WATER LOOP DEMAND MIXER,NODE 48,NODE 51,CONDENSER WATER LOOP,Demand
     Plant Loop Connector Branches,2,Mixer,CONDENSER WATER LOOP DEMAND MIXER,CONDENSER WATER LOOP DEMAND BRANCH 2,CONDENSER WATER LOOP DEMAND OUTLET BRANCH,CONDENSER WATER LOOP,Demand
     Plant Loop Connector Nodes,   2,Mixer,CONDENSER WATER LOOP DEMAND MIXER,NODE 62,NODE 51,CONDENSER WATER LOOP,Demand
     Plant Loop Connector Branches,3,Mixer,CONDENSER WATER LOOP DEMAND MIXER,CONDENSER WATER LOOP DEMAND BYPASS BRANCH,CONDENSER WATER LOOP DEMAND OUTLET BRANCH,CONDENSER WATER LOOP,Demand
     Plant Loop Connector Nodes,   3,Mixer,CONDENSER WATER LOOP DEMAND MIXER,CONDENSER WATER LOOP DEMAND BYPASS PIPE OUTLET NODE,NODE 51,CONDENSER WATER LOOP,Demand
 Plant Loop,CONDENSER WATER LOOP,Supply,NODE 38,NODE 39,CONDENSER WATER LOOP SUPPLY BRANCHES,CONDENSER WATER LOOP SUPPLY CONNECTOR LIST
   Plant Loop Connector,Splitter,CONDENSER WATER LOOP SUPPLY SPLITTER,CONDENSER WATER LOOP,Supply,2
     Plant Loop Connector Branches,1,Splitter,CONDENSER WATER LOOP SUPPLY SPLITTER,CONDENSER WATER LOOP SUPPLY INLET BRANCH,CONDENSER WATER LOOP SUPPLY BRANCH 1,CONDENSER WATER LOOP,Supply
     Plant Loop Connector Nodes,   1,Splitter,CONDENSER WATER LOOP SUPPLY SPLITTER,NODE 44,NODE 40,CONDENSER WATER LOOP,Supply
     Plant Loop Connector Branches,2,Splitter,CONDENSER WATER LOOP SUPPLY SPLITTER,CONDENSER WATER LOOP SUPPLY INLET BRANCH,CONDENSER WATER LOOP SUPPLY BRANCH 2,CONDENSER WATER LOOP,Supply
     Plant Loop Connector Nodes,   2,Splitter,CONDENSER WATER LOOP SUPPLY SPLITTER,NODE 44,NODE 46,CONDENSER WATER LOOP,Supply
   Plant Loop Connector,Mixer,CONDENSER WATER LOOP SUPPLY MIXER,CONDENSER WATER LOOP,Supply,2
     Plant Loop Connector Branches,1,Mixer,CONDENSER WATER LOOP SUPPLY MIXER,CONDENSER WATER LOOP SUPPLY BRANCH 1,CONDENSER WATER LOOP SUPPLY OUTLET BRANCH,CONDENSER WATER LOOP,Supply
     Plant Loop Connector Nodes,   1,Mixer,CONDENSER WATER LOOP SUPPLY MIXER,NODE 45,NODE 49,CONDENSER WATER LOOP,Supply
     Plant Loop Connector Branches,2,Mixer,CONDENSER WATER LOOP SUPPLY MIXER,CONDENSER WATER LOOP SUPPLY BRANCH 2,CONDENSER WATER LOOP SUPPLY OUTLET BRANCH,CONDENSER WATER LOOP,Supply
     Plant Loop Connector Nodes,   2,Mixer,CONDENSER WATER LOOP SUPPLY MIXER,NODE 47,NODE 49,CONDENSER WATER LOOP,Supply
 Plant Loop Supply Connection,CONDENSER WATER LOOP,NODE 39,NODE 41
 Plant Loop Return Connection,CONDENSER WATER LOOP,NODE 42,NODE 38
 Plant Loop,HEAT PUMP LOOP,Demand,NODE 207,NODE 208,HEAT PUMP LOOP DEMAND BRANCHES,HEAT PUMP LOOP DEMAND CONNECTOR LIST
   Plant Loop Connector,Splitter,HEAT PUMP LOOP DEMAND SPLITTER,HEAT PUMP LOOP,Demand,10
     Plant Loop Connector Branches,1,Splitter,HEAT PUMP LOOP DEMAND SPLITTER,HEAT PUMP LOOP DEMAND INLET BRANCH,HEAT PUMP LOOP DEMAND BRANCH 1,HEAT PUMP LOOP,Demand
     Plant Loop Connector Nodes,   1,Splitter,HEAT PUMP LOOP DEMAND SPLITTER,NODE 218,NODE 209,HEAT PUMP LOOP,Demand
     Plant Loop Connector Branches,2,Splitter,HEAT PUMP LOOP DEMAND SPLITTER,HEAT PUMP LOOP DEMAND INLET BRANCH,HEAT PUMP LOOP DEMAND BRANCH 2,HEAT PUMP LOOP,Demand
     Plant Loop Connector Nodes,   2,Splitter,HEAT PUMP LOOP DEMAND SPLITTER,NODE 218,NODE 225,HEAT PUMP LOOP,Demand
     Plant Loop Connector Branches,3,Splitter,HEAT PUMP LOOP DEMAND SPLITTER,HEAT PUMP LOOP DEMAND INLET BRANCH,HEAT PUMP LOOP DEMAND BRANCH 3,HEAT PUMP LOOP,Demand
     Plant Loop Connector Nodes,   3,Splitter,HEAT PUMP LOOP DEMAND SPLITTER,NODE 218,NODE 227,HEAT PUMP LOOP,Demand
     Plant Loop Connector Branches,4,Splitter,HEAT PUMP LOOP DEMAND SPLITTER,HEAT PUMP LOOP DEMAND INLET BRANCH,HEAT PUMP LOOP DEMAND BRANCH 4,HEAT PUMP LOOP,Demand
     Plant Loop Connector Nodes,   4,Splitter,HEAT PUMP LOOP DEMAND SPLITTER,NODE 218,NODE 238,HEAT PUMP LOOP,Demand
     Plant Loop Connector Branches,5,Splitter,HEAT PUMP LOOP DEMAND SPLITTER,HEAT PUMP LOOP DEMAND INLET BRANCH,HEAT PUMP LOOP DEMAND BRANCH 5,HEAT PUMP LOOP,Demand
     Plant Loop Connector Nodes,   5,Splitter,HEAT PUMP LOOP DEMAND SPLITTER,NODE 218,NODE 240,HEAT PUMP LOOP,Demand
     Plant Loop Connector Branches,6,Splitter,HEAT PUMP LOOP DEMAND SPLITTER,HEAT PUMP LOOP DEMAND INLET BRANCH,HEAT PUMP LOOP DEMAND BRANCH 6,HEAT PUMP LOOP,Demand
     Plant Loop Connector Nodes,   6,Splitter,HEAT PUMP LOOP DEMAND SPLITTER,NODE 218,NODE 251,HEAT PUMP LOOP,Demand
     Plant Loop Connector Branches,7,Splitter,HEAT PUMP LOOP DEMAND SPLITTER,HEAT PUMP LOOP DEMAND INLET BRANCH,HEAT PUMP LOOP DEMAND BRANCH 7,HEAT PUMP LOOP,Demand
     Plant Loop Connector Nodes,   7,Splitter,HEAT PUMP LOOP DEMAND SPLITTER,NODE 218,NODE 253,HEAT PUMP LOOP,Demand
     Plant Loop Connector Branches,8,Splitter,HEAT PUMP LOOP DEMAND SPLITTER,HEAT PUMP LOOP DEMAND INLET BRANCH,HEAT PUMP LOOP DEMAND BRANCH 8,HEAT PUMP LOOP,Demand
     Plant Loop Connector Nodes,   8,Splitter,HEAT PUMP LOOP DEMAND SPLITTER,NODE 218,NODE 264,HEAT PUMP LOOP,Demand
[...]
 Non-Parent Node Connection,NODE 199,OUTDOORAIR:MIXER,CAV_BAS OA SYS OUTDOOR AIR MIXER,Outlet,1
 Non-Parent Node Connection,NODE 197,OUTDOORAIR:MIXER,CAV_BAS OA SYS OUTDOOR AIR MIXER,Inlet,1
 Non-Parent Node Connection,NODE 198,OUTDOORAIR:MIXER,CAV_BAS OA SYS OUTDOOR AIR MIXER,ReliefAir,1
 Non-Parent Node Connection,NODE 186,OUTDOORAIR:MIXER,CAV_BAS OA SYS OUTDOOR AIR MIXER,Inlet,1
 Non-Parent Node Connection,NODE 231,OUTDOORAIR:MIXER,DATACENTER_BASEMENT_ZN_6 ZN PSZ-AC DATA CENTER OA SYS OUTDOOR AIR MIXER,Outlet,1
 Non-Parent Node Connection,NODE 229,OUTDOORAIR:MIXER,DATACENTER_BASEMENT_ZN_6 ZN PSZ-AC DATA CENTER OA SYS OUTDOOR AIR MIXER,Inlet,1
 Non-Parent Node Connection,NODE 230,OUTDOORAIR:MIXER,DATACENTER_BASEMENT_ZN_6 ZN PSZ-AC DATA CENTER OA SYS OUTDOOR AIR MIXER,ReliefAir,1
 Non-Parent Node Connection,NODE 220,OUTDOORAIR:MIXER,DATACENTER_BASEMENT_ZN_6 ZN PSZ-AC DATA CENTER OA SYS OUTDOOR AIR MIXER,Inlet,1
 Non-Parent Node Connection,NODE 244,OUTDOORAIR:MIXER,DATACENTER_BOT_ZN_6 ZN PSZ-AC DATA CENTER OA SYS OUTDOOR AIR MIXER,Outlet,1
 Non-Parent Node Connection,NODE 242,OUTDOORAIR:MIXER,DATACENTER_BOT_ZN_6 ZN PSZ-AC DATA CENTER OA SYS OUTDOOR AIR MIXER,Inlet,1
 Non-Parent Node Connection,NODE 243,OUTDOORAIR:MIXER,DATACENTER_BOT_ZN_6 ZN PSZ-AC DATA CENTER OA SYS OUTDOOR AIR MIXER,ReliefAir,1
 Non-Parent Node Connection,NODE 233,OUTDOORAIR:MIXER,DATACENTER_BOT_ZN_6 ZN PSZ-AC DATA CENTER OA SYS OUTDOOR AIR MIXER,Inlet,1
 Non-Parent Node Connection,NODE 257,OUTDOORAIR:MIXER,DATACENTER_MID_ZN_6 ZN PSZ-AC DATA CENTER OA SYS OUTDOOR AIR MIXER,Outlet,1
 Non-Parent Node Connection,NODE 255,OUTDOORAIR:MIXER,DATACENTER_MID_ZN_6 ZN PSZ-AC DATA CENTER OA SYS OUTDOOR AIR MIXER,Inlet,1
 Non-Parent Node Connection,NODE 256,OUTDOORAIR:MIXER,DATACENTER_MID_ZN_6 ZN PSZ-AC DATA CENTER OA SYS OUTDOOR AIR MIXER,ReliefAir,1
 Non-Parent Node Connection,NODE 246,OUTDOORAIR:MIXER,DATACENTER_MID_ZN_6 ZN PSZ-AC DATA CENTER OA SYS OUTDOOR AIR MIXER,Inlet,1
 Non-Parent Node Connection,NODE 270,OUTDOORAIR:MIXER,DATACENTER_TOP_ZN_6 ZN PSZ-AC DATA CENTER OA SYS OUTDOOR AIR MIXER,Outlet,1
 Non-Parent Node Connection,NODE 268,OUTDOORAIR:MIXER,DATACENTER_TOP_ZN_6 ZN PSZ-AC DATA CENTER OA SYS OUTDOOR AIR MIXER,Inlet,1
 Non-Parent Node Connection,NODE 269,OUTDOORAIR:MIXER,DATACENTER_TOP_ZN_6 ZN PSZ-AC DATA CENTER OA SYS OUTDOOR AIR MIXER,ReliefAir,1
 Non-Parent Node Connection,NODE 259,OUTDOORAIR:MIXER,DATACENTER_TOP_ZN_6 ZN PSZ-AC DATA CENTER OA SYS OUTDOOR AIR MIXER,Inlet,1
 Non-Parent Node Connection,NODE 82,OUTDOORAIR:MIXER,VAV_BOT WITH REHEAT OA SYS OUTDOOR AIR MIXER,Outlet,1
 Non-Parent Node Connection,NODE 80,OUTDOORAIR:MIXER,VAV_BOT WITH REHEAT OA SYS OUTDOOR AIR MIXER,Inlet,1
 Non-Parent Node Connection,NODE 81,OUTDOORAIR:MIXER,VAV_BOT WITH REHEAT OA SYS OUTDOOR AIR MIXER,ReliefAir,1
 Non-Parent Node Connection,NODE 69,OUTDOORAIR:MIXER,VAV_BOT WITH REHEAT OA SYS OUTDOOR AIR MIXER,Inlet,1
 Non-Parent Node Connection,NODE 121,OUTDOORAIR:MIXER,VAV_MID WITH REHEAT OA SYS OUTDOOR AIR MIXER,Outlet,1
 Non-Parent Node Connection,NODE 293,OUTDOORAIR:MIXER,VAV_MID WITH REHEAT OA SYS OUTDOOR AIR MIXER,Inlet,1
 Non-Parent Node Connection,NODE 294,OUTDOORAIR:MIXER,VAV_MID WITH REHEAT OA SYS OUTDOOR AIR MIXER,ReliefAir,1
 Non-Parent Node Connection,NODE 108,OUTDOORAIR:MIXER,VAV_MID WITH REHEAT OA SYS OUTDOOR AIR MIXER,Inlet,1
 Non-Parent Node Connection,NODE 160,OUTDOORAIR:MIXER,VAV_TOP WITH REHEAT OA SYS OUTDOOR AIR MIXER,Outlet,1
 Non-Parent Node Connection,NODE 158,OUTDOORAIR:MIXER,VAV_TOP WITH REHEAT OA SYS OUTDOOR AIR MIXER,Inlet,1
 Non-Parent Node Connection,NODE 159,OUTDOORAIR:MIXER,VAV_TOP WITH REHEAT OA SYS OUTDOOR AIR MIXER,ReliefAir,1
 Non-Parent Node Connection,NODE 147,OUTDOORAIR:MIXER,VAV_TOP WITH REHEAT OA SYS OUTDOOR AIR MIXER,Inlet,1
 Non-Parent Node Connection,NODE 191,FAN:CONSTANTVOLUME,CAV_BAS FAN,Inlet,1
 Non-Parent Node Connection,NODE 187,FAN:CONSTANTVOLUME,CAV_BAS FAN,Outlet,1
 Non-Parent Node Connection,NODE 74,FAN:VARIABLEVOLUME,VAV_BOT WITH REHEAT FAN,Inlet,1
 Non-Parent Node Connection,NODE 70,FAN:VARIABLEVOLUME,VAV_BOT WITH REHEAT FAN,Outlet,1
 Non-Parent Node Connection,NODE 113,FAN:VARIABLEVOLUME,VAV_MID WITH REHEAT FAN,Inlet,1
 Non-Parent Node Connection,NODE 109,FAN:VARIABLEVOLUME,VAV_MID WITH REHEAT FAN,Outlet,1
 Non-Parent Node Connection,NODE 152,FAN:VARIABLEVOLUME,VAV_TOP WITH REHEAT FAN,Inlet,1
 Non-Parent Node Connection,NODE 148,FAN:VARIABLEVOLUME,VAV_TOP WITH REHEAT FAN,Outlet,1
 Non-Parent Node Connection,NODE 231,FAN:ONOFF,DATACENTER_BASEMENT_ZN_6 ZN PSZ-AC DATA CENTER FAN,Inlet,1
 Non-Parent Node Connection,DATACENTER_BASEMENT_ZN_6 ZN UNITARY HP FAN - COOLING COIL NODE,FAN:ONOFF,DATACENTER_BASEMENT_ZN_6 ZN PSZ-AC DATA CENTER FAN,Outlet,1
 Non-Parent Node Connection,NODE 244,FAN:ONOFF,DATACENTER_BOT_ZN_6 ZN PSZ-AC DATA CENTER FAN,Inlet,1
 Non-Parent Node Connection,DATACENTER_BOT_ZN_6 ZN UNITARY HP FAN - COOLING COIL NODE,FAN:ONOFF,DATACENTER_BOT_ZN_6 ZN PSZ-AC DATA CENTER FAN,Outlet,1
 Non-Parent Node Connection,NODE 257,FAN:ONOFF,DATACENTER_MID_ZN_6 ZN PSZ-AC DATA CENTER FAN,Inlet,1
 Non-Parent Node Connection,DATACENTER_MID_ZN_6 ZN UNITARY HP FAN - COOLING COIL NODE,FAN:ONOFF,DATACENTER_MID_ZN_6 ZN PSZ-AC DATA CENTER FAN,Outlet,1
 Non-Parent Node Connection,NODE 270,FAN:ONOFF,DATACENTER_TOP_ZN_6 ZN PSZ-AC DATA CENTER FAN,Inlet,1
 Non-Parent Node Connection,DATACENTER_TOP_ZN_6 ZN UNITARY HP FAN - COOLING COIL NODE,FAN:ONOFF,DATACENTER_TOP_ZN_6 ZN PSZ-AC DATA CENTER FAN,Outlet,1
 Non-Parent Node Connection,NODE 199,CONTROLLER:OUTDOORAIR,CAV_BAS OA CONTROLLER,Sensor,1
 Non-Parent Node Connection,NODE 197,CONTROLLER:OUTDOORAIR,CAV_BAS OA CONTROLLER,Actuator,1
 Non-Parent Node Connection,NODE 198,CONTROLLER:OUTDOORAIR,CAV_BAS OA CONTROLLER,Actuator,1
 Non-Parent Node Connection,NODE 186,CONTROLLER:OUTDOORAIR,CAV_BAS OA CONTROLLER,Sensor,1
 Non-Parent Node Connection,NODE 231,CONTROLLER:OUTDOORAIR,DATACENTER_BASEMENT_ZN_6 ZN PSZ-AC DATA CENTER OA SYS CONTROLLER,Sensor,1
 Non-Parent Node Connection,NODE 229,CONTROLLER:OUTDOORAIR,DATACENTER_BASEMENT_ZN_6 ZN PSZ-AC DATA CENTER OA SYS CONTROLLER,Actuator,1
 Non-Parent Node Connection,NODE 230,CONTROLLER:OUTDOORAIR,DATACENTER_BASEMENT_ZN_6 ZN PSZ-AC DATA CENTER OA SYS CONTROLLER,Actuator,1
 Non-Parent Node Connection,NODE 220,CONTROLLER:OUTDOORAIR,DATACENTER_BASEMENT_ZN_6 ZN PSZ-AC DATA CENTER OA SYS CONTROLLER,Sensor,1
 Non-Parent Node Connection,NODE 244,CONTROLLER:OUTDOORAIR,DATACENTER_BOT_ZN_6 ZN PSZ-AC DATA CENTER OA SYS CONTROLLER,Sensor,1
 Non-Parent Node Connection,NODE 242,CONTROLLER:OUTDOORAIR,DATACENTER_BOT_ZN_6 ZN PSZ-AC DATA CENTER OA SYS CONTROLLER,Actuator,1
 Non-Parent Node Connection,NODE 243,CONTROLLER:OUTDOORAIR,DATACENTER_BOT_ZN_6 ZN PSZ-AC DATA CENTER OA SYS CONTROLLER,Actuator,1
 Non-Parent Node Connection,NODE 233,CONTROLLER:OUTDOORAIR,DATACENTER_BOT_ZN_6 ZN PSZ-AC DATA CENTER OA SYS CONTROLLER,Sensor,1
 Non-Parent Node Connection,NODE 257,CONTROLLER:OUTDOORAIR,DATACENTER_MID_ZN_6 ZN PSZ-AC DATA CENTER OA SYS CONTROLLER,Sensor,1
 Non-Parent Node Connection,NODE 255,CONTROLLER:OUTDOORAIR,DATACENTER_MID_ZN_6 ZN PSZ-AC DATA CENTER OA SYS CONTROLLER,Actuator,1
 Non-Parent Node Connection,NODE 256,CONTROLLER:OUTDOORAIR,DATACENTER_MID_ZN_6 ZN PSZ-AC DATA CENTER OA SYS CONTROLLER,Actuator,1
 Non-Parent Node Connection,NODE 246,CONTROLLER:OUTDOORAIR,DATACENTER_MID_ZN_6 ZN PSZ-AC DATA CENTER OA SYS CONTROLLER,Sensor,1
 Non-Parent Node Connection,NODE 270,CONTROLLER:OUTDOORAIR,DATACENTER_TOP_ZN_6 ZN PSZ-AC DATA CENTER OA SYS CONTROLLER,Sensor,1
 Non-Parent Node Connection,NODE 268,CONTROLLER:OUTDOORAIR,DATACENTER_TOP_ZN_6 ZN PSZ-AC DATA CENTER OA SYS CONTROLLER,Actuator,1
 Non-Parent Node Connection,NODE 269,CONTROLLER:OUTDOORAIR,DATACENTER_TOP_ZN_6 ZN PSZ-AC DATA CENTER OA SYS CONTROLLER,Actuator,1
 Non-Parent Node Connection,NODE 259,CONTROLLER:OUTDOORAIR,DATACENTER_TOP_ZN_6 ZN PSZ-AC DATA CENTER OA SYS CONTROLLER,Sensor,1
 Non-Parent Node Connection,NODE 82,CONTROLLER:OUTDOORAIR,VAV_BOT WITH REHEAT OA CONTROLLER,Sensor,1
 Non-Parent Node Connection,NODE 80,CONTROLLER:OUTDOORAIR,VAV_BOT WITH REHEAT OA CONTROLLER,Actuator,1
 Non-Parent Node Connection,NODE 81,CONTROLLER:OUTDOORAIR,VAV_BOT WITH REHEAT OA CONTROLLER,Actuator,1
 Non-Parent Node Connection,NODE 69,CONTROLLER:OUTDOORAIR,VAV_BOT WITH REHEAT OA CONTROLLER,Sensor,1
 Non-Parent Node Connection,NODE 121,CONTROLLER:OUTDOORAIR,VAV_MID WITH REHEAT OA CONTROLLER,Sensor,1
 Non-Parent Node Connection,NODE 119,CONTROLLER:OUTDOORAIR,VAV_MID WITH REHEAT OA CONTROLLER,Actuator,1
 Non-Parent Node Connection,NODE 294,CONTROLLER:OUTDOORAIR,VAV_MID WITH REHEAT OA CONTROLLER,Actuator,1
 Non-Parent Node Connection,NODE 108,CONTROLLER:OUTDOORAIR,VAV_MID WITH REHEAT OA CONTROLLER,Sensor,1
 Non-Parent Node Connection,NODE 160,CONTROLLER:OUTDOORAIR,VAV_TOP WITH REHEAT OA CONTROLLER,Sensor,1
 Non-Parent Node Connection,NODE 158,CONTROLLER:OUTDOORAIR,VAV_TOP WITH REHEAT OA CONTROLLER,Actuator,1
 Non-Parent Node Connection,NODE 159,CONTROLLER:OUTDOORAIR,VAV_TOP WITH REHEAT OA CONTROLLER,Actuator,1
 Non-Parent Node Connection,NODE 147,CONTROLLER:OUTDOORAIR,VAV_TOP WITH REHEAT OA CONTROLLER,Sensor,1
 Non-Parent Node Connection,NODE 227,COIL:COOLING:WATERTOAIRHEATPUMP:EQUATIONFIT,DATACENTER_BASEMENT_ZN_6 ZN PSZ-AC DATA CENTER WATER-TO-AIR HP CLG COIL,Inlet,2
 Non-Parent Node Connection,NODE 228,COIL:COOLING:WATERTOAIRHEATPUMP:EQUATIONFIT,DATACENTER_BASEMENT_ZN_6 ZN PSZ-AC DATA CENTER WATER-TO-AIR HP CLG COIL,Outlet,2
 Non-Parent Node Connection,DATACENTER_BASEMENT_ZN_6 ZN UNITARY HP FAN - COOLING COIL NODE,COIL:COOLING:WATERTOAIRHEATPUMP:EQUATIONFIT,DATACENTER_BASEMENT_ZN_6 ZN PSZ-AC DATA CENTER WATER-TO-AIR HP CLG COIL,Inlet,1
 Non-Parent Node Connection,DATACENTER_BASEMENT_ZN_6 ZN UNITARY HP COOLING COIL - HEATING COIL NODE,COIL:COOLING:WATERTOAIRHEATPUMP:EQUATIONFIT,DATACENTER_BASEMENT_ZN_6 ZN PSZ-AC DATA CENTER WATER-TO-AIR HP CLG COIL,Outlet,1
 Non-Parent Node Connection,NODE 240,COIL:COOLING:WATERTOAIRHEATPUMP:EQUATIONFIT,DATACENTER_BOT_ZN_6 ZN PSZ-AC DATA CENTER WATER-TO-AIR HP CLG COIL,Inlet,2
 Non-Parent Node Connection,NODE 241,COIL:COOLING:WATERTOAIRHEATPUMP:EQUATIONFIT,DATACENTER_BOT_ZN_6 ZN PSZ-AC DATA CENTER WATER-TO-AIR HP CLG COIL,Outlet,2
 Non-Parent Node Connection,DATACENTER_BOT_ZN_6 ZN UNITARY HP FAN - COOLING COIL NODE,COIL:COOLING:WATERTOAIRHEATPUMP:EQUATIONFIT,DATACENTER_BOT_ZN_6 ZN PSZ-AC DATA CENTER WATER-TO-AIR HP CLG COIL,Inlet,1
 Non-Parent Node Connection,DATACENTER_BOT_ZN_6 ZN UNITARY HP COOLING COIL - HEATING COIL NODE,COIL:COOLING:WATERTOAIRHEATPUMP:EQUATIONFIT,DATACENTER_BOT_ZN_6 ZN PSZ-AC DATA CENTER WATER-TO-AIR HP CLG COIL,Outlet,1
 Non-Parent Node Connection,NODE 253,COIL:COOLING:WATERTOAIRHEATPUMP:EQUATIONFIT,DATACENTER_MID_ZN_6 ZN PSZ-AC DATA CENTER WATER-TO-AIR HP CLG COIL,Inlet,2
 Non-Parent Node Connection,NODE 254,COIL:COOLING:WATERTOAIRHEATPUMP:EQUATIONFIT,DATACENTER_MID_ZN_6 ZN PSZ-AC DATA CENTER WATER-TO-AIR HP CLG COIL,Outlet,2
 Non-Parent Node Connection,DATACENTER_MID_ZN_6 ZN UNITARY HP FAN - COOLING COIL NODE,COIL:COOLING:WATERTOAIRHEATPUMP:EQUATIONFIT,DATACENTER_MID_ZN_6 ZN PSZ-AC DATA CENTER WATER-TO-AIR HP CLG COIL,Inlet,1
 Non-Parent Node Connection,DATACENTER_MID_ZN_6 ZN UNITARY HP COOLING COIL - HEATING COIL NODE,COIL:COOLING:WATERTOAIRHEATPUMP:EQUATIONFIT,DATACENTER_MID_ZN_6 ZN PSZ-AC DATA CENTER WATER-TO-AIR HP CLG COIL,Outlet,1
 Non-Parent Node Connection,NODE 266,COIL:COOLING:WATERTOAIRHEATPUMP:EQUATIONFIT,DATACENTER_TOP_ZN_6 ZN PSZ-AC DATA CENTER WATER-TO-AIR HP CLG COIL,Inlet,2
 Non-Parent Node Connection,NODE 267,COIL:COOLING:WATERTOAIRHEATPUMP:EQUATIONFIT,DATACENTER_TOP_ZN_6 ZN PSZ-AC DATA CENTER WATER-TO-AIR HP CLG COIL,Outlet,2
 Non-Parent Node Connection,DATACENTER_TOP_ZN_6 ZN UNITARY HP FAN - COOLING COIL NODE,COIL:COOLING:WATERTOAIRHEATPUMP:EQUATIONFIT,DATACENTER_TOP_ZN_6 ZN PSZ-AC DATA CENTER WATER-TO-AIR HP CLG COIL,Inlet,1
 Non-Parent Node Connection,DATACENTER_TOP_ZN_6 ZN UNITARY HP COOLING COIL - HEATING COIL NODE,COIL:COOLING:WATERTOAIRHEATPUMP:EQUATIONFIT,DATACENTER_TOP_ZN_6 ZN PSZ-AC DATA CENTER WATER-TO-AIR HP CLG COIL,Outlet,1
 Non-Parent Node Connection,NODE 225,COIL:HEATING:WATERTOAIRHEATPUMP:EQUATIONFIT,DATACENTER_BASEMENT_ZN_6 ZN PSZ-AC DATA CENTER WATER-TO-AIR HP HTG COIL,Inlet,2
 Non-Parent Node Connection,NODE 226,COIL:HEATING:WATERTOAIRHEATPUMP:EQUATIONFIT,DATACENTER_BASEMENT_ZN_6 ZN PSZ-AC DATA CENTER WATER-TO-AIR HP HTG COIL,Outlet,2
 Non-Parent Node Connection,DATACENTER_BASEMENT_ZN_6 ZN UNITARY HP COOLING COIL - HEATING COIL NODE,COIL:HEATING:WATERTOAIRHEATPUMP:EQUATIONFIT,DATACENTER_BASEMENT_ZN_6 ZN PSZ-AC DATA CENTER WATER-TO-AIR HP HTG COIL,Inlet,1
 Non-Parent Node Connection,DATACENTER_BASEMENT_ZN_6 ZN UNITARY HP HEATING COIL - SUPPLEMENTAL COIL NODE,COIL:HEATING:WATERTOAIRHEATPUMP:EQUATIONFIT,DATACENTER_BASEMENT_ZN_6 ZN PSZ-AC DATA CENTER WATER-TO-AIR HP HTG COIL,Outlet,1
 Non-Parent Node Connection,NODE 238,COIL:HEATING:WATERTOAIRHEATPUMP:EQUATIONFIT,DATACENTER_BOT_ZN_6 ZN PSZ-AC DATA CENTER WATER-TO-AIR HP HTG COIL,Inlet,2
 Non-Parent Node Connection,NODE 239,COIL:HEATING:WATERTOAIRHEATPUMP:EQUATIONFIT,DATACENTER_BOT_ZN_6 ZN PSZ-AC DATA CENTER WATER-TO-AIR HP HTG COIL,Outlet,2
 Non-Parent Node Connection,DATACENTER_BOT_ZN_6 ZN UNITARY HP COOLING COIL - HEATING COIL NODE,COIL:HEATING:WATERTOAIRHEATPUMP:EQUATIONFIT,DATACENTER_BOT_ZN_6 ZN PSZ-AC DATA CENTER WATER-TO-AIR HP HTG COIL,Inlet,1
 Non-Parent Node Connection,DATACENTER_BOT_ZN_6 ZN UNITARY HP HEATING COIL - SUPPLEMENTAL COIL NODE,COIL:HEATING:WATERTOAIRHEATPUMP:EQUATIONFIT,DATACENTER_BOT_ZN_6 ZN PSZ-AC DATA CENTER WATER-TO-AIR HP HTG COIL,Outlet,1
 Non-Parent Node Connection,NODE 251,COIL:HEATING:WATERTOAIRHEATPUMP:EQUATIONFIT,DATACENTER_MID_ZN_6 ZN PSZ-AC DATA CENTER WATER-TO-AIR HP HTG COIL,Inlet,2
 Non-Parent Node Connection,NODE 252,COIL:HEATING:WATERTOAIRHEATPUMP:EQUATIONFIT,DATACENTER_MID_ZN_6 ZN PSZ-AC DATA CENTER WATER-TO-AIR HP HTG COIL,Outlet,2
 Non-Parent Node Connection,DATACENTER_MID_ZN_6 ZN UNITARY HP COOLING COIL - HEATING COIL NODE,COIL:HEATING:WATERTOAIRHEATPUMP:EQUATIONFIT,DATACENTER_MID_ZN_6 ZN PSZ-AC DATA CENTER WATER-TO-AIR HP HTG COIL,Inlet,1
 Non-Parent Node Connection,DATACENTER_MID_ZN_6 ZN UNITARY HP HEATING COIL - SUPPLEMENTAL COIL NODE,COIL:HEATING:WATERTOAIRHEATPUMP:EQUATIONFIT,DATACENTER_MID_ZN_6 ZN PSZ-AC DATA CENTER WATER-TO-AIR HP HTG COIL,Outlet,1
 Non-Parent Node Connection,NODE 264,COIL:HEATING:WATERTOAIRHEATPUMP:EQUATIONFIT,DATACENTER_TOP_ZN_6 ZN PSZ-AC DATA CENTER WATER-TO-AIR HP HTG COIL,Inlet,2
 Non-Parent Node Connection,NODE 265,COIL:HEATING:WATERTOAIRHEATPUMP:EQUATIONFIT,DATACENTER_TOP_ZN_6 ZN PSZ-AC DATA CENTER WATER-TO-AIR HP HTG COIL,Outlet,2
 Non-Parent Node Connection,DATACENTER_TOP_ZN_6 ZN UNITARY HP COOLING COIL - HEATING COIL NODE,COIL:HEATING:WATERTOAIRHEATPUMP:EQUATIONFIT,DATACENTER_TOP_ZN_6 ZN PSZ-AC DATA CENTER WATER-TO-AIR HP HTG COIL,Inlet,1
 Non-Parent Node Connection,DATACENTER_TOP_ZN_6 ZN UNITARY HP HEATING COIL - SUPPLEMENTAL COIL NODE,COIL:HEATING:WATERTOAIRHEATPUMP:EQUATIONFIT,DATACENTER_TOP_ZN_6 ZN PSZ-AC DATA CENTER WATER-TO-AIR HP HTG COIL,Outlet,1
 Non-Parent Node Connection,DATACENTER_BASEMENT_ZN_6 ZN UNITARY HP HEATING COIL - SUPPLEMENTAL COIL NODE,COIL:HEATING:ELECTRIC,DATACENTER_BASEMENT_ZN_6 ZN PSZ-AC DATA CENTER ELECTRIC BACKUP HTG COIL,Inlet,1
 Non-Parent Node Connection,NODE 221,COIL:HEATING:ELECTRIC,DATACENTER_BASEMENT_ZN_6 ZN PSZ-AC DATA CENTER ELECTRIC BACKUP HTG COIL,Outlet,1
 Non-Parent Node Connection,DATACENTER_BOT_ZN_6 ZN UNITARY HP HEATING COIL - SUPPLEMENTAL COIL NODE,COIL:HEATING:ELECTRIC,DATACENTER_BOT_ZN_6 ZN PSZ-AC DATA CENTER ELECTRIC BACKUP HTG COIL,Inlet,1
 Non-Parent Node Connection,NODE 234,COIL:HEATING:ELECTRIC,DATACENTER_BOT_ZN_6 ZN PSZ-AC DATA CENTER ELECTRIC BACKUP HTG COIL,Outlet,1
 Non-Parent Node Connection,DATACENTER_MID_ZN_6 ZN UNITARY HP HEATING COIL - SUPPLEMENTAL COIL NODE,COIL:HEATING:ELECTRIC,DATACENTER_MID_ZN_6 ZN PSZ-AC DATA CENTER ELECTRIC BACKUP HTG COIL,Inlet,1
 Non-Parent Node Connection,NODE 247,COIL:HEATING:ELECTRIC,DATACENTER_MID_ZN_6 ZN PSZ-AC DATA CENTER ELECTRIC BACKUP HTG COIL,Outlet,1
 Non-Parent Node Connection,DATACENTER_TOP_ZN_6 ZN UNITARY HP HEATING COIL - SUPPLEMENTAL COIL NODE,COIL:HEATING:ELECTRIC,DATACENTER_TOP_ZN_6 ZN PSZ-AC DATA CENTER ELECTRIC BACKUP HTG COIL,Inlet,1
 Non-Parent Node Connection,NODE 260,COIL:HEATING:ELECTRIC,DATACENTER_TOP_ZN_6 ZN PSZ-AC DATA CENTER ELECTRIC BACKUP HTG COIL,Outlet,1
 Non-Parent Node Connection,NODE 119,HEATEXCHANGER:AIRTOAIR:SENSIBLEANDLATENT,VAV_MID WITH REHEAT ERV,Inlet,1
 Non-Parent Node Connection,NODE 293,HEATEXCHANGER:AIRTOAIR:SENSIBLEANDLATENT,VAV_MID WITH REHEAT ERV,Outlet,1
 Non-Parent Node Connection,NODE 294,HEATEXCHANGER:AIRTOAIR:SENSIBLEANDLATENT,VAV_MID WITH REHEAT ERV,Inlet,2
 Non-Parent Node Connection,NODE 120,HEATEXCHANGER:AIRTOAIR:SENSIBLEANDLATENT,VAV_MID WITH REHEAT ERV,Outlet,2
 Non-Parent Node Connection,NODE 54,CHILLER:ELECTRIC:EIR,90.1-2010 WATERCOOLED  CENTRIFUGAL CHILLER 0 739TONS 0.6KW/TON,Inlet,1
 Non-Parent Node Connection,NODE 60,CHILLER:ELECTRIC:EIR,90.1-2010 WATERCOOLED  CENTRIFUGAL CHILLER 0 739TONS 0.6KW/TON,Outlet,1
 Non-Parent Node Connection,NODE 61,CHILLER:ELECTRIC:EIR,90.1-2010 WATERCOOLED  CENTRIFUGAL CHILLER 0 739TONS 0.6KW/TON,Inlet,2
 Non-Parent Node Connection,NODE 62,CHILLER:ELECTRIC:EIR,90.1-2010 WATERCOOLED  CENTRIFUGAL CHILLER 0 739TONS 0.6KW/TON,Outlet,2
 Non-Parent Node Connection,NODE 40,COOLINGTOWER:SINGLESPEED,CENTRIFUGAL FAN CYCLING OPEN COOLING TOWER 38.2 GPM/HP,Inlet,1
 Non-Parent Node Connection,NODE 45,COOLINGTOWER:SINGLESPEED,CENTRIFUGAL FAN CYCLING OPEN COOLING TOWER 38.2 GPM/HP,Outlet,1
 Non-Parent Node Connection,NODE 206,COOLINGTOWER:TWOSPEED,HEAT PUMP LOOP CENTRAL TOWER 20.0 GPM/HP,Inlet,1
 Non-Parent Node Connection,NODE 211,COOLINGTOWER:TWOSPEED,HEAT PUMP LOOP CENTRAL TOWER 20.0 GPM/HP,Outlet,1
 Non-Parent Node Connection,NODE 212,BOILER:HOTWATER,HEAT PUMP LOOP SUP BOILER 1425KBTU/HR 0.8 THERMAL EFF,Inlet,1
 Non-Parent Node Connection,NODE 213,BOILER:HOTWATER,HEAT PUMP LOOP SUP BOILER 1425KBTU/HR 0.8 THERMAL EFF,Outlet,1
 Non-Parent Node Connection,NODE 26,BOILER:HOTWATER,HOT WATER LOOP BOILER 7217KBTU/HR 0.8 THERMAL EFF,Inlet,1
 Non-Parent Node Connection,NODE 31,BOILER:HOTWATER,HOT WATER LOOP BOILER 7217KBTU/HR 0.8 THERMAL EFF,Outlet,1
 Non-Parent Node Connection,NODE 67,PUMP:VARIABLESPEED,CHILLED WATER LOOP SECONDARY PUMP,Inlet,1
 Non-Parent Node Connection,NODE 59,PUMP:VARIABLESPEED,CHILLED WATER LOOP SECONDARY PUMP,Outlet,1
 Non-Parent Node Connection,NODE 24,PUMP:VARIABLESPEED,HOT WATER LOOP PUMP,Inlet,1
 Non-Parent Node Connection,NODE 30,PUMP:VARIABLESPEED,HOT WATER LOOP PUMP,Outlet,1
 Non-Parent Node Connection,NODE 52,PUMP:CONSTANTSPEED,CHILLED WATER LOOP PRIMARY PUMP,Inlet,1
 Non-Parent Node Connection,NODE 58,PUMP:CONSTANTSPEED,CHILLED WATER LOOP PRIMARY PUMP,Outlet,1
 Non-Parent Node Connection,NODE 38,PUMP:CONSTANTSPEED,CONDENSER WATER LOOP PUMP,Inlet,1
 Non-Parent Node Connection,NODE 44,PUMP:CONSTANTSPEED,CONDENSER WATER LOOP PUMP,Outlet,1
 Non-Parent Node Connection,NODE 204,PUMP:CONSTANTSPEED,HEAT PUMP LOOP PUMP,Inlet,1
 Non-Parent Node Connection,NODE 210,PUMP:CONSTANTSPEED,HEAT PUMP LOOP PUMP,Outlet,1
 Non-Parent Node Connection,NODE 272,PUMP:CONSTANTSPEED,SERVICE WATER LOOP PUMP,Inlet,1
 Non-Parent Node Connection,NODE 278,PUMP:CONSTANTSPEED,SERVICE WATER LOOP PUMP,Outlet,1
 Non-Parent Node Connection,NODE 206,PLANTEQUIPMENTOPERATION:COMPONENTSETPOINT,HEAT PUMP LOOP SETPOINT OPERATION SCHEME,Sensor,1
 Non-Parent Node Connection,NODE 211,PLANTEQUIPMENTOPERATION:COMPONENTSETPOINT,HEAT PUMP LOOP SETPOINT OPERATION SCHEME,Sensor,1
 Non-Parent Node Connection,NODE 212,PLANTEQUIPMENTOPERATION:COMPONENTSETPOINT,HEAT PUMP LOOP SETPOINT OPERATION SCHEME,Sensor,1
 Non-Parent Node Connection,NODE 213,PLANTEQUIPMENTOPERATION:COMPONENTSETPOINT,HEAT PUMP LOOP SETPOINT OPERATION SCHEME,Sensor,1
