Program Version,EnergyPlus, Version 8.9.0-eba93e8e1b, YMD=2018.07.12 10:19
! <Version>, Version ID
 Version, 8.9
! <Timesteps per Hour>, #TimeSteps, Minutes per TimeStep {minutes}
 Timesteps per Hour,  6, 10
! <System Convergence Limits>, Minimum System TimeStep {minutes}, Max HVAC Iterations, Minimum Plant Iterations, Maximum Plant Iterations
 System Convergence Limits, 1, 20, 2, 8
! <Simulation Control>, Do Zone Sizing, Do System Sizing, Do Plant Sizing, Do Design Days, Do Weather Simulation, Do HVAC Sizing Simulation
 Simulation Control, Yes, Yes, Yes, No, Yes, No
! <Output Reporting Tolerances>, Tolerance for Time Heating Setpoint Not Met, Tolerance for Zone Cooling Setpoint Not Met Time
 Output Reporting Tolerances, 0.200, 0.200, 
! <Site:GroundTemperature:BuildingSurface>,Jan{C},Feb{C},Mar{C},Apr{C},May{C},Jun{C},Jul{C},Aug{C},Sep{C},Oct{C},Nov{C},Dec{C}
 Site:GroundTemperature:BuildingSurface,  19.53,  19.50,  19.54,  19.60,  20.00,  21.64,  22.23,  22.38,  21.45,  20.12,  19.80,  19.63
! <Site:GroundTemperature:FCfactorMethod>,Jan{C},Feb{C},Mar{C},Apr{C},May{C},Jun{C},Jul{C},Aug{C},Sep{C},Oct{C},Nov{C},Dec{C}
 Site:GroundTemperature:FCfactorMethod,  -1.89,  -3.06,  -0.99,   2.23,  10.68,  17.20,  21.60,  22.94,  20.66,  15.60,   8.83,   2.56
! <Site:GroundTemperature:Shallow>,Jan{C},Feb{C},Mar{C},Apr{C},May{C},Jun{C},Jul{C},Aug{C},Sep{C},Oct{C},Nov{C},Dec{C}
 Site:GroundTemperature:Shallow,  13.00,  13.00,  13.00,  13.00,  13.00,  13.00,  13.00,  13.00,  13.00,  13.00,  13.00,  13.00
! <Site:GroundTemperature:Deep>,Jan{C},Feb{C},Mar{C},Apr{C},May{C},Jun{C},Jul{C},Aug{C},Sep{C},Oct{C},Nov{C},Dec{C}
 Site:GroundTemperature:Deep,  16.00,  16.00,  16.00,  16.00,  16.00,  16.00,  16.00,  16.00,  16.00,  16.00,  16.00,  16.00
! <Site:GroundReflectance>,Jan{dimensionless},Feb{dimensionless},Mar{dimensionless},Apr{dimensionless},May{dimensionless},Jun{dimensionless},Jul{dimensionless},Aug{dimensionless},Sep{dimensionless},Oct{dimensionless},Nov{dimensionless},Dec{dimensionless}
 Site:GroundReflectance,  0.20,  0.20,  0.20,  0.20,  0.20,  0.20,  0.20,  0.20,  0.20,  0.20,  0.20,  0.20
! <Site:GroundReflectance:SnowModifier>, Normal, Daylighting {dimensionless}
 Site:GroundReflectance:SnowModifier,   1.000,   1.000
! <Site:GroundReflectance:Snow>,Jan{dimensionless},Feb{dimensionless},Mar{dimensionless},Apr{dimensionless},May{dimensionless},Jun{dimensionless},Jul{dimensionless},Aug{dimensionless},Sep{dimensionless},Oct{dimensionless},Nov{dimensionless},Dec{dimensionless}
 Site:GroundReflectance:Snow,  0.20,  0.20,  0.20,  0.20,  0.20,  0.20,  0.20,  0.20,  0.20,  0.20,  0.20,  0.20
! <Site:GroundReflectance:Snow:Daylighting>,Jan{dimensionless},Feb{dimensionless},Mar{dimensionless},Apr{dimensionless},May{dimensionless},Jun{dimensionless},Jul{dimensionless},Aug{dimensionless},Sep{dimensionless},Oct{dimensionless},Nov{dimensionless},Dec{dimensionless}
 Site:GroundReflectance:Snow:Daylighting,  0.20,  0.20,  0.20,  0.20,  0.20,  0.20,  0.20,  0.20,  0.20,  0.20,  0.20,  0.20
! <Environment:Weather Station>,Wind Sensor Height Above Ground {m},Wind Speed Profile Exponent {},Wind Speed Profile Boundary Layer Thickness {m},Air Temperature Sensor Height Above Ground {m},Wind Speed Modifier Coefficient-Internal,Temperature Modifier Coefficient-Internal
Environment:Weather Station,10.000,0.140,270.000,1.500,1.586,9.750E-003
! <Site:Location>, Location Name, Latitude {N+/S- Deg}, Longitude {E+/W- Deg},  Time Zone Number {GMT+/-}, Elevation {m},  Standard Pressure at Elevation {Pa}, Standard RhoAir at Elevation
Site:Location,Chicago Ohare Intl Ap IL USA TMY3 WMO#=725300,41.98,-87.92,-6.00,201.00,98934,1.1759
! <Building Information>, Building Name,North Axis {deg},Terrain,  Loads Convergence Tolerance Value,Temperature Convergence Tolerance Value,  Solar Distribution,Maximum Number of Warmup Days,Minimum Number of Warmup Days
 Building Information,-LargeOffice-ASHRAE 169-2006-5A created: 2018-07-12 10:08:55 -0400,0.000,City,4.00000E-002,0.20000,FullInteriorAndExterior,25,6
! <Inside Convection Algorithm>, Algorithm {Simple | TARP | CeilingDiffuser | AdaptiveConvectionAlgorithm}
Inside Convection Algorithm,TARP
! <Outside Convection Algorithm>, Algorithm {SimpleCombined | TARP | MoWitt | DOE-2 | AdaptiveConvectionAlgorithm}
Outside Convection Algorithm,TARP
! <Sky Radiance Distribution>, Value {Anisotropic}
Sky Radiance Distribution,Anisotropic
! <Zone Air Solution Algorithm>, Value {ThirdOrderBackwardDifference | AnalyticalSolution | EulerMethod}
 Zone Air Solution Algorithm, ThirdOrderBackwardDifference
! <Zone Air Carbon Dioxide Balance Simulation>, Simulation {Yes/No}, Carbon Dioxide Concentration
 Zone Air Carbon Dioxide Balance Simulation, No,N/A
! <Zone Air Generic Contaminant Balance Simulation>, Simulation {Yes/No}, Generic Contaminant Concentration
 Zone Air Generic Contaminant Balance Simulation, No,N/A
! <Zone Air Mass Flow Balance Simulation>, Enforce Mass Balance, Adjust Zone Mixing, Adjust Zone Infiltration {AddInfiltration | AdjustInfiltration | None}, Infiltration Zones {MixingSourceZonesOnly | AllZones}
 Zone Air Mass Flow Balance Simulation, No,N/A,N/A,N/A
! <HVACSystemRootFindingAlgorithm>, Value {RegulaFalsi | Bisection | BisectionThenRegulaFalsi | RegulaFalsiThenBisection}
 HVACSystemRootFindingAlgorithm, RegulaFalsi
! <Environment:Site Atmospheric Variation>,Wind Speed Profile Exponent {},Wind Speed Profile Boundary Layer Thickness {m},Air Temperature Gradient Coefficient {K/m}
Environment:Site Atmospheric Variation,0.330,460.000,6.500000E-003
! <Surface Geometry>,Starting Corner,Vertex Input Direction,Coordinate System,Daylight Reference Point Coordinate System,Rectangular (Simple) Surface Coordinate System
 Surface Geometry,UpperLeftCorner,Counterclockwise,RelativeCoordinateSystem,RelativeCoordinateSystem,RelativeToZoneOrigin
! <Surface Heat Transfer Algorithm>, Value {CTF - ConductionTransferFunction | EMPD - MoisturePenetrationDepthConductionTransferFunction | CondFD - ConductionFiniteDifference | HAMT - CombinedHeatAndMoistureFiniteElement} - Description,Inside Surface Max Temperature Limit{C}, Surface Convection Coefficient Lower Limit {W/m2-K}, Surface Convection Coefficient Upper Limit {W/m2-K}
Surface Heat Transfer Algorithm, CTF - ConductionTransferFunction,200,0.10,1000.0
! <Shading Summary>, Number of Fixed Detached Shades, Number of Building Detached Shades, Number of Attached Shades
 Shading Summary,0,0,0
! <Zone Summary>, Number of Zones, Number of Zone Surfaces, Number of SubSurfaces
 Zone Summary,23,201,12
! <Zone Information>,Zone Name,North Axis {deg},Origin X-Coordinate {m},Origin Y-Coordinate {m},Origin Z-Coordinate {m},Centroid X-Coordinate {m},Centroid Y-Coordinate {m},Centroid Z-Coordinate {m},Type,Zone Multiplier,Zone List Multiplier,Minimum X {m},Maximum X {m},Minimum Y {m},Maximum Y {m},Minimum Z {m},Maximum Z {m},Ceiling Height {m},Volume {m3},Zone Inside Convection Algorithm {Simple-Detailed-CeilingDiffuser-TrombeWall},Zone Outside Convection Algorithm {Simple-Detailed-Tarp-MoWitt-DOE-2-BLAST}, Floor Area {m2},Exterior Gross Wall Area {m2},Exterior Net Wall Area {m2},Exterior Window Area {m2}, Number of Surfaces, Number of SubSurfaces, Number of Shading SubSurfaces,  Part of Total Building Area
 Zone Information, BASEMENT ZN,0.0,16.08,0.00,-2.44,44.59,24.37,-1.22,1,1,1,16.08,73.11,0.00,48.74,-2.44,0.00,2.44,6779.02,TARP,TARP,2779.43,0.00,0.00,0.00,9,0,0,Yes
 Zone Information, CORE_BOTTOM ZN,0.0,5.49,4.57,0.00,37.01,24.37,1.37,1,1,1,5.49,68.53,4.57,44.17,0.00,2.74,2.74,6849.35,TARP,TARP,2496.12,0.00,0.00,0.00,7,0,0,Yes
 Zone Information, CORE_MID ZN,0.0,5.49,4.57,19.82,37.01,24.37,21.19,1,10,1,5.49,68.53,4.57,44.17,19.82,22.56,2.74,6849.35,TARP,TARP,2496.12,0.00,0.00,0.00,6,0,0,Yes
 Zone Information, CORE_TOP ZN,0.0,5.49,4.57,43.60,37.01,24.37,44.97,1,1,1,5.49,68.53,4.57,44.17,43.60,46.34,2.74,6849.35,TARP,TARP,2496.12,0.00,0.00,0.00,6,0,0,Yes
 Zone Information, DATACENTER_BASEMENT_ZN_6 ZN,0.0,0.00,0.00,-2.44,8.04,24.37,-1.22,1,1,1,0.00,16.08,0.00,48.74,-2.44,0.00,2.44,1911.37,TARP,TARP,783.68,0.00,0.00,0.00,10,0,0,Yes
 Zone Information, DATACENTER_BOT_ZN_6 ZN,0.0,4.57,4.57,0.00,5.03,24.37,1.37,1,1,1,4.57,5.49,4.57,44.17,0.00,2.74,2.74,99.34,TARP,TARP,36.20,0.00,0.00,0.00,6,0,0,Yes
 Zone Information, DATACENTER_MID_ZN_6 ZN,0.0,4.57,4.57,19.82,5.03,24.37,21.19,1,10,1,4.57,5.49,4.57,44.17,19.82,22.56,2.74,99.34,TARP,TARP,36.20,0.00,0.00,0.00,6,0,0,Yes
 Zone Information, DATACENTER_TOP_ZN_6 ZN,0.0,4.57,4.57,43.60,5.03,24.37,44.97,1,1,1,4.57,5.49,4.57,44.17,43.60,46.34,2.74,99.34,TARP,TARP,36.20,0.00,0.00,0.00,6,0,0,Yes
 Zone Information, GROUNDFLOOR_PLENUM ZN,0.0,0.00,0.00,2.74,36.55,24.37,3.35,1,1,1,0.00,73.11,0.00,48.74,2.74,3.96,1.22,4344.14,TARP,TARP,3563.11,297.11,297.11,0.00,11,0,0,No
 Zone Information, MIDFLOOR_PLENUM ZN,0.0,0.00,0.00,22.56,36.55,24.37,23.17,1,10,1,0.00,73.11,0.00,48.74,22.56,23.78,1.22,4344.14,TARP,TARP,3563.11,297.11,297.11,0.00,11,0,0,No
 Zone Information, PERIMETER_BOT_ZN_1 ZN,0.0,0.00,0.00,0.00,36.55,2.20,1.37,1,1,1,0.00,73.11,0.00,4.57,0.00,2.74,2.74,860.02,TARP,TARP,313.42,200.61,84.71,115.90,8,1,0,Yes
 Zone Information, PERIMETER_BOT_ZN_2 ZN,0.0,68.53,0.00,0.00,70.95,24.37,1.37,1,1,1,68.53,73.11,0.00,48.74,0.00,2.74,2.74,554.22,TARP,TARP,201.98,133.74,56.47,77.26,6,1,0,Yes
 Zone Information, PERIMETER_BOT_ZN_3 ZN,0.0,0.00,44.17,0.00,36.55,46.54,1.37,1,1,1,0.00,73.11,44.17,48.74,0.00,2.74,2.74,860.00,TARP,TARP,313.41,200.61,84.71,115.90,8,1,0,Yes
 Zone Information, PERIMETER_BOT_ZN_4 ZN,0.0,0.00,0.00,0.00,2.16,24.37,1.37,1,1,1,0.00,4.57,0.00,48.74,0.00,2.74,2.74,554.22,TARP,TARP,201.98,133.74,56.47,77.26,6,1,0,Yes
 Zone Information, PERIMETER_MID_ZN_1 ZN,0.0,0.00,0.00,19.82,36.55,2.20,21.19,1,10,1,0.00,73.11,0.00,4.57,19.82,22.56,2.74,860.02,TARP,TARP,313.42,200.61,84.71,115.90,7,1,0,Yes
 Zone Information, PERIMETER_MID_ZN_2 ZN,0.0,68.53,0.00,19.82,70.95,24.37,21.19,1,10,1,68.53,73.11,0.00,48.74,19.82,22.56,2.74,554.22,TARP,TARP,201.98,133.74,56.47,77.26,6,1,0,Yes
 Zone Information, PERIMETER_MID_ZN_3 ZN,0.0,0.00,44.17,19.82,36.55,46.54,21.19,1,10,1,-2.55E-016,73.11,44.17,48.74,19.82,22.56,2.74,860.00,TARP,TARP,313.41,200.61,84.71,115.90,7,1,0,Yes
 Zone Information, PERIMETER_MID_ZN_4 ZN,0.0,0.00,0.00,19.82,2.16,24.37,21.19,1,10,1,0.00,4.57,0.00,48.74,19.82,22.56,2.74,554.22,TARP,TARP,201.98,133.74,56.47,77.26,6,1,0,Yes
 Zone Information, PERIMETER_TOP_ZN_1 ZN,0.0,-7.22E-016,0.00,43.60,36.55,2.20,44.97,1,1,1,-7.22E-016,73.11,0.00,4.57,43.60,46.34,2.74,860.02,TARP,TARP,313.42,200.61,84.71,115.90,7,1,0,Yes
 Zone Information, PERIMETER_TOP_ZN_2 ZN,0.0,68.53,0.00,43.60,70.95,24.37,44.97,1,1,1,68.53,73.11,0.00,48.74,43.60,46.34,2.74,554.22,TARP,TARP,201.98,133.74,56.47,77.26,6,1,0,Yes
 Zone Information, PERIMETER_TOP_ZN_3 ZN,0.0,-7.22E-016,44.17,43.60,36.55,46.54,44.97,1,1,1,-9.77E-016,73.11,44.17,48.74,43.60,46.34,2.74,860.00,TARP,TARP,313.41,200.61,84.71,115.90,7,1,0,Yes
 Zone Information, PERIMETER_TOP_ZN_4 ZN,0.0,-7.22E-016,0.00,43.60,2.16,24.37,44.97,1,1,1,-7.22E-016,4.57,0.00,48.74,43.60,46.34,2.74,554.22,TARP,TARP,201.98,133.74,56.47,77.26,6,1,0,Yes
 Zone Information, TOPFLOOR_PLENUM ZN,0.0,-7.22E-016,0.00,46.34,36.55,24.37,46.95,1,1,1,-7.22E-016,73.11,0.00,48.74,46.34,47.56,1.22,4344.14,TARP,TARP,3563.11,297.11,297.11,0.00,11,0,0,No
! <Zone Internal Gains Nominal>,Zone Name, Floor Area {m2},# Occupants,Area per Occupant {m2/person},Occupant per Area {person/m2},Interior Lighting {W/m2},Electric Load {W/m2},Gas Load {W/m2},Other Load {W/m2},Hot Water Eq {W/m2},Steam Equipment {W/m2},Sum Loads per Area {W/m2},Outdoor Controlled Baseboard Heat
 Zone Internal Gains Nominal, BASEMENT ZN,2779.43,149.6,18.581,5.382E-002,9.688,8.070,0.000,0.000,0.000,0.000,17.758,No
 Zone Internal Gains Nominal, CORE_BOTTOM ZN,2496.12,134.3,18.581,5.382E-002,9.688,8.070,0.000,0.000,0.000,0.000,17.758,No
 Zone Internal Gains Nominal, CORE_MID ZN,2496.12,134.3,18.581,5.382E-002,9.688,8.070,0.000,0.000,0.000,0.000,17.758,No
 Zone Internal Gains Nominal, CORE_TOP ZN,2496.12,134.3,18.581,5.382E-002,9.688,8.070,0.000,0.000,0.000,0.000,17.758,No
 Zone Internal Gains Nominal, DATACENTER_BASEMENT_ZN_6 ZN,783.68,0.0,N/A,0.000,9.688,484.376,0.000,0.000,0.000,0.000,494.063,No
 Zone Internal Gains Nominal, DATACENTER_BOT_ZN_6 ZN,36.20,0.0,N/A,0.000,9.688,215.278,0.000,0.000,0.000,0.000,224.966,No
 Zone Internal Gains Nominal, DATACENTER_MID_ZN_6 ZN,36.20,0.0,N/A,0.000,9.688,215.278,0.000,0.000,0.000,0.000,224.966,No
 Zone Internal Gains Nominal, DATACENTER_TOP_ZN_6 ZN,36.20,0.0,N/A,0.000,9.688,215.278,0.000,0.000,0.000,0.000,224.966,No
 Zone Internal Gains Nominal, GROUNDFLOOR_PLENUM ZN,3563.11,0.0,N/A,0.000,0.000,0.000,0.000,0.000,0.000,0.000,0.000,No
 Zone Internal Gains Nominal, MIDFLOOR_PLENUM ZN,3563.11,0.0,N/A,0.000,0.000,0.000,0.000,0.000,0.000,0.000,0.000,No
 Zone Internal Gains Nominal, PERIMETER_BOT_ZN_1 ZN,313.42,16.9,18.581,5.382E-002,9.688,8.070,0.000,0.000,0.000,0.000,17.758,No
 Zone Internal Gains Nominal, PERIMETER_BOT_ZN_2 ZN,201.98,10.9,18.581,5.382E-002,9.688,8.070,0.000,0.000,0.000,0.000,17.758,No
 Zone Internal Gains Nominal, PERIMETER_BOT_ZN_3 ZN,313.41,16.9,18.581,5.382E-002,9.688,8.070,0.000,0.000,0.000,0.000,17.758,No
 Zone Internal Gains Nominal, PERIMETER_BOT_ZN_4 ZN,201.98,10.9,18.581,5.382E-002,9.688,8.070,0.000,0.000,0.000,0.000,17.758,No
 Zone Internal Gains Nominal, PERIMETER_MID_ZN_1 ZN,313.42,16.9,18.581,5.382E-002,9.688,8.070,0.000,0.000,0.000,0.000,17.758,No
 Zone Internal Gains Nominal, PERIMETER_MID_ZN_2 ZN,201.98,10.9,18.581,5.382E-002,9.688,8.070,0.000,0.000,0.000,0.000,17.758,No
 Zone Internal Gains Nominal, PERIMETER_MID_ZN_3 ZN,313.41,16.9,18.581,5.382E-002,9.688,8.070,0.000,0.000,0.000,0.000,17.758,No
 Zone Internal Gains Nominal, PERIMETER_MID_ZN_4 ZN,201.98,10.9,18.581,5.382E-002,9.688,8.070,0.000,0.000,0.000,0.000,17.758,No
 Zone Internal Gains Nominal, PERIMETER_TOP_ZN_1 ZN,313.42,16.9,18.581,5.382E-002,9.688,8.070,0.000,0.000,0.000,0.000,17.758,No
 Zone Internal Gains Nominal, PERIMETER_TOP_ZN_2 ZN,201.98,10.9,18.581,5.382E-002,9.688,8.070,0.000,0.000,0.000,0.000,17.758,No
 Zone Internal Gains Nominal, PERIMETER_TOP_ZN_3 ZN,313.41,16.9,18.581,5.382E-002,9.688,8.070,0.000,0.000,0.000,0.000,17.758,No
 Zone Internal Gains Nominal, PERIMETER_TOP_ZN_4 ZN,201.98,10.9,18.581,5.382E-002,9.688,8.070,0.000,0.000,0.000,0.000,17.758,No
 Zone Internal Gains Nominal, TOPFLOOR_PLENUM ZN,3563.11,0.0,N/A,0.000,0.000,0.000,0.000,0.000,0.000,0.000,0.000,No
! <People Internal Gains Nominal>,Name,Schedule Name,Zone Name,Zone Floor Area {m2},# Zone Occupants,Number of People {},People/Floor Area {person/m2},Floor Area per person {m2/person},Fraction Radiant,Fraction Convected,Sensible Fraction Calculation,Activity level,ASHRAE 55 Warnings,Carbon Dioxide Generation Rate,Nominal Minimum Number of People,Nominal Maximum Number of People
 People Internal Gains Nominal, BASEMENT ZN OFFICE WHOLEBUILDING - LG OFFICE PEOPLE,OFFICELARGE BLDG_OCC_SCH,BASEMENT ZN,2779.43,149.6,149.6,5.382E-002,18.581,0.300,0.700,AutoCalculate,OFFICELARGE ACTIVITY_SCH,No,3.8200E-008,0,150
 People Internal Gains Nominal, CORE_BOTTOM ZN OFFICE WHOLEBUILDING - LG OFFICE PEOPLE,OFFICELARGE BLDG_OCC_SCH,CORE_BOTTOM ZN,2496.12,134.3,134.3,5.382E-002,18.581,0.300,0.700,AutoCalculate,OFFICELARGE ACTIVITY_SCH,No,3.8200E-008,0,134
 People Internal Gains Nominal, CORE_MID ZN OFFICE WHOLEBUILDING - LG OFFICE PEOPLE,OFFICELARGE BLDG_OCC_SCH,CORE_MID ZN,2496.12,134.3,134.3,5.382E-002,18.581,0.300,0.700,AutoCalculate,OFFICELARGE ACTIVITY_SCH,No,3.8200E-008,0,134
 People Internal Gains Nominal, CORE_TOP ZN OFFICE WHOLEBUILDING - LG OFFICE PEOPLE,OFFICELARGE BLDG_OCC_SCH,CORE_TOP ZN,2496.12,134.3,134.3,5.382E-002,18.581,0.300,0.700,AutoCalculate,OFFICELARGE ACTIVITY_SCH,No,3.8200E-008,0,134
 People Internal Gains Nominal, PERIMETER_BOT_ZN_1 ZN OFFICE WHOLEBUILDING - LG OFFICE PEOPLE,OFFICELARGE BLDG_OCC_SCH,PERIMETER_BOT_ZN_1 ZN,313.42,16.9,16.9,5.382E-002,18.581,0.300,0.700,AutoCalculate,OFFICELARGE ACTIVITY_SCH,No,3.8200E-008,0,17
 People Internal Gains Nominal, PERIMETER_BOT_ZN_2 ZN OFFICE WHOLEBUILDING - LG OFFICE PEOPLE,OFFICELARGE BLDG_OCC_SCH,PERIMETER_BOT_ZN_2 ZN,201.98,10.9,10.9,5.382E-002,18.581,0.300,0.700,AutoCalculate,OFFICELARGE ACTIVITY_SCH,No,3.8200E-008,0,11
 People Internal Gains Nominal, PERIMETER_BOT_ZN_3 ZN OFFICE WHOLEBUILDING - LG OFFICE PEOPLE,OFFICELARGE BLDG_OCC_SCH,PERIMETER_BOT_ZN_3 ZN,313.41,16.9,16.9,5.382E-002,18.581,0.300,0.700,AutoCalculate,OFFICELARGE ACTIVITY_SCH,No,3.8200E-008,0,17
 People Internal Gains Nominal, PERIMETER_BOT_ZN_4 ZN OFFICE WHOLEBUILDING - LG OFFICE PEOPLE,OFFICELARGE BLDG_OCC_SCH,PERIMETER_BOT_ZN_4 ZN,201.98,10.9,10.9,5.382E-002,18.581,0.300,0.700,AutoCalculate,OFFICELARGE ACTIVITY_SCH,No,3.8200E-008,0,11
 People Internal Gains Nominal, PERIMETER_MID_ZN_1 ZN OFFICE WHOLEBUILDING - LG OFFICE PEOPLE,OFFICELARGE BLDG_OCC_SCH,PERIMETER_MID_ZN_1 ZN,313.42,16.9,16.9,5.382E-002,18.581,0.300,0.700,AutoCalculate,OFFICELARGE ACTIVITY_SCH,No,3.8200E-008,0,17
 People Internal Gains Nominal, PERIMETER_MID_ZN_2 ZN OFFICE WHOLEBUILDING - LG OFFICE PEOPLE,OFFICELARGE BLDG_OCC_SCH,PERIMETER_MID_ZN_2 ZN,201.98,10.9,10.9,5.382E-002,18.581,0.300,0.700,AutoCalculate,OFFICELARGE ACTIVITY_SCH,No,3.8200E-008,0,11
 People Internal Gains Nominal, PERIMETER_MID_ZN_3 ZN OFFICE WHOLEBUILDING - LG OFFICE PEOPLE,OFFICELARGE BLDG_OCC_SCH,PERIMETER_MID_ZN_3 ZN,313.41,16.9,16.9,5.382E-002,18.581,0.300,0.700,AutoCalculate,OFFICELARGE ACTIVITY_SCH,No,3.8200E-008,0,17
 People Internal Gains Nominal, PERIMETER_MID_ZN_4 ZN OFFICE WHOLEBUILDING - LG OFFICE PEOPLE,OFFICELARGE BLDG_OCC_SCH,PERIMETER_MID_ZN_4 ZN,201.98,10.9,10.9,5.382E-002,18.581,0.300,0.700,AutoCalculate,OFFICELARGE ACTIVITY_SCH,No,3.8200E-008,0,11
 People Internal Gains Nominal, PERIMETER_TOP_ZN_1 ZN OFFICE WHOLEBUILDING - LG OFFICE PEOPLE,OFFICELARGE BLDG_OCC_SCH,PERIMETER_TOP_ZN_1 ZN,313.42,16.9,16.9,5.382E-002,18.581,0.300,0.700,AutoCalculate,OFFICELARGE ACTIVITY_SCH,No,3.8200E-008,0,17
 People Internal Gains Nominal, PERIMETER_TOP_ZN_2 ZN OFFICE WHOLEBUILDING - LG OFFICE PEOPLE,OFFICELARGE BLDG_OCC_SCH,PERIMETER_TOP_ZN_2 ZN,201.98,10.9,10.9,5.382E-002,18.581,0.300,0.700,AutoCalculate,OFFICELARGE ACTIVITY_SCH,No,3.8200E-008,0,11
 People Internal Gains Nominal, PERIMETER_TOP_ZN_3 ZN OFFICE WHOLEBUILDING - LG OFFICE PEOPLE,OFFICELARGE BLDG_OCC_SCH,PERIMETER_TOP_ZN_3 ZN,313.41,16.9,16.9,5.382E-002,18.581,0.300,0.700,AutoCalculate,OFFICELARGE ACTIVITY_SCH,No,3.8200E-008,0,17
 People Internal Gains Nominal, PERIMETER_TOP_ZN_4 ZN OFFICE WHOLEBUILDING - LG OFFICE PEOPLE,OFFICELARGE BLDG_OCC_SCH,PERIMETER_TOP_ZN_4 ZN,201.98,10.9,10.9,5.382E-002,18.581,0.300,0.700,AutoCalculate,OFFICELARGE ACTIVITY_SCH,No,3.8200E-008,0,11
! <Lights Internal Gains Nominal>,Name,Schedule Name,Zone Name,Zone Floor Area {m2},# Zone Occupants,Lighting Level {W},Lights/Floor Area {W/m2},Lights per person {W/person},Fraction Return Air,Fraction Radiant,Fraction Short Wave,Fraction Convected,Fraction Replaceable,End-Use Category,Nominal Minimum Lighting Level {W},Nominal Maximum Lighting Level {W}
 Lights Internal Gains Nominal, DATACENTER_BOT_ZN_6 ZN OFFICE OFFICELARGE DATA CENTER LIGHTS,OFFICELARGE BLDG_LIGHT_SCH,DATACENTER_BOT_ZN_6 ZN,36.20,0.0,350.715,9.688,N/A,0.000,0.700,0.200,0.100,1.000,General,0.000,350.715
 Lights Internal Gains Nominal, DATACENTER_MID_ZN_6 ZN OFFICE OFFICELARGE DATA CENTER LIGHTS,OFFICELARGE BLDG_LIGHT_SCH,DATACENTER_MID_ZN_6 ZN,36.20,0.0,350.715,9.688,N/A,0.000,0.700,0.200,0.100,1.000,General,0.000,350.715
 Lights Internal Gains Nominal, DATACENTER_TOP_ZN_6 ZN OFFICE OFFICELARGE DATA CENTER LIGHTS,OFFICELARGE BLDG_LIGHT_SCH,DATACENTER_TOP_ZN_6 ZN,36.20,0.0,350.715,9.688,N/A,0.000,0.700,0.200,0.100,1.000,General,0.000,350.715
 Lights Internal Gains Nominal, DATACENTER_BASEMENT_ZN_6 ZN OFFICE OFFICELARGE MAIN DATA CENTER LIGHTS,OFFICELARGE BLDG_LIGHT_SCH,DATACENTER_BASEMENT_ZN_6 ZN,783.68,0.0,7591.909,9.688,N/A,0.000,0.700,0.200,0.100,1.000,General,0.000,7591.909
 Lights Internal Gains Nominal, BASEMENT ZN OFFICE WHOLEBUILDING - LG OFFICE LIGHTS,OFFICELARGE BLDG_LIGHT_SCH,BASEMENT ZN,2779.43,149.6,26925.749,9.688,180.000,0.000,0.700,0.200,0.100,1.000,General,0.000,26925.749
 Lights Internal Gains Nominal, CORE_BOTTOM ZN OFFICE WHOLEBUILDING - LG OFFICE LIGHTS,OFFICELARGE BLDG_LIGHT_SCH,CORE_BOTTOM ZN,2496.12,134.3,24181.215,9.688,180.000,0.000,0.700,0.200,0.100,1.000,General,0.000,24181.215
 Lights Internal Gains Nominal, CORE_MID ZN OFFICE WHOLEBUILDING - LG OFFICE LIGHTS,OFFICELARGE BLDG_LIGHT_SCH,CORE_MID ZN,2496.12,134.3,24181.215,9.688,180.000,0.000,0.700,0.200,0.100,1.000,General,0.000,24181.215
 Lights Internal Gains Nominal, CORE_TOP ZN OFFICE WHOLEBUILDING - LG OFFICE LIGHTS,OFFICELARGE BLDG_LIGHT_SCH,CORE_TOP ZN,2496.12,134.3,24181.215,9.688,180.000,0.000,0.700,0.200,0.100,1.000,General,0.000,24181.215
 Lights Internal Gains Nominal, PERIMETER_BOT_ZN_1 ZN OFFICE WHOLEBUILDING - LG OFFICE LIGHTS,OFFICELARGE BLDG_LIGHT_SCH,PERIMETER_BOT_ZN_1 ZN,313.42,16.9,3036.259,9.688,180.000,0.000,0.700,0.200,0.100,1.000,General,0.000,3036.259
 Lights Internal Gains Nominal, PERIMETER_BOT_ZN_2 ZN OFFICE WHOLEBUILDING - LG OFFICE LIGHTS,OFFICELARGE BLDG_LIGHT_SCH,PERIMETER_BOT_ZN_2 ZN,201.98,10.9,1956.638,9.688,180.000,0.000,0.700,0.200,0.100,1.000,General,0.000,1956.638
 Lights Internal Gains Nominal, PERIMETER_BOT_ZN_3 ZN OFFICE WHOLEBUILDING - LG OFFICE LIGHTS,OFFICELARGE BLDG_LIGHT_SCH,PERIMETER_BOT_ZN_3 ZN,313.41,16.9,3036.193,9.688,180.000,0.000,0.700,0.200,0.100,1.000,General,0.000,3036.193
 Lights Internal Gains Nominal, PERIMETER_BOT_ZN_4 ZN OFFICE WHOLEBUILDING - LG OFFICE LIGHTS,OFFICELARGE BLDG_LIGHT_SCH,PERIMETER_BOT_ZN_4 ZN,201.98,10.9,1956.638,9.688,180.000,0.000,0.700,0.200,0.100,1.000,General,0.000,1956.638
 Lights Internal Gains Nominal, PERIMETER_MID_ZN_1 ZN OFFICE WHOLEBUILDING - LG OFFICE LIGHTS,OFFICELARGE BLDG_LIGHT_SCH,PERIMETER_MID_ZN_1 ZN,313.42,16.9,3036.259,9.688,180.000,0.000,0.700,0.200,0.100,1.000,General,0.000,3036.259
 Lights Internal Gains Nominal, PERIMETER_MID_ZN_2 ZN OFFICE WHOLEBUILDING - LG OFFICE LIGHTS,OFFICELARGE BLDG_LIGHT_SCH,PERIMETER_MID_ZN_2 ZN,201.98,10.9,1956.638,9.688,180.000,0.000,0.700,0.200,0.100,1.000,General,0.000,1956.638
 Lights Internal Gains Nominal, PERIMETER_MID_ZN_3 ZN OFFICE WHOLEBUILDING - LG OFFICE LIGHTS,OFFICELARGE BLDG_LIGHT_SCH,PERIMETER_MID_ZN_3 ZN,313.41,16.9,3036.193,9.688,180.000,0.000,0.700,0.200,0.100,1.000,General,0.000,3036.193
 Lights Internal Gains Nominal, PERIMETER_MID_ZN_4 ZN OFFICE WHOLEBUILDING - LG OFFICE LIGHTS,OFFICELARGE BLDG_LIGHT_SCH,PERIMETER_MID_ZN_4 ZN,201.98,10.9,1956.638,9.688,180.000,0.000,0.700,0.200,0.100,1.000,General,0.000,1956.638
 Lights Internal Gains Nominal, PERIMETER_TOP_ZN_1 ZN OFFICE WHOLEBUILDING - LG OFFICE LIGHTS,OFFICELARGE BLDG_LIGHT_SCH,PERIMETER_TOP_ZN_1 ZN,313.42,16.9,3036.259,9.688,180.000,0.000,0.700,0.200,0.100,1.000,General,0.000,3036.259
 Lights Internal Gains Nominal, PERIMETER_TOP_ZN_2 ZN OFFICE WHOLEBUILDING - LG OFFICE LIGHTS,OFFICELARGE BLDG_LIGHT_SCH,PERIMETER_TOP_ZN_2 ZN,201.98,10.9,1956.638,9.688,180.000,0.000,0.700,0.200,0.100,1.000,General,0.000,1956.638
 Lights Internal Gains Nominal, PERIMETER_TOP_ZN_3 ZN OFFICE WHOLEBUILDING - LG OFFICE LIGHTS,OFFICELARGE BLDG_LIGHT_SCH,PERIMETER_TOP_ZN_3 ZN,313.41,16.9,3036.193,9.688,180.000,0.000,0.700,0.200,0.100,1.000,General,0.000,3036.193
 Lights Internal Gains Nominal, PERIMETER_TOP_ZN_4 ZN OFFICE WHOLEBUILDING - LG OFFICE LIGHTS,OFFICELARGE BLDG_LIGHT_SCH,PERIMETER_TOP_ZN_4 ZN,201.98,10.9,1956.638,9.688,180.000,0.000,0.700,0.200,0.100,1.000,General,0.000,1956.638
! <ElectricEquipment Internal Gains Nominal>,Name,Schedule Name,Zone Name,Zone Floor Area {m2},# Zone Occupants,Equipment Level {W},Equipment/Floor Area {W/m2},Equipment per person {W/person},Fraction Latent,Fraction Radiant,Fraction Lost,Fraction Convected,End-Use SubCategory,Nominal Minimum Equipment Level {W},Nominal Maximum Equipment Level {W}
 ElectricEquipment Internal Gains Nominal, DATACENTER_BOT_ZN_6 ZN OFFICE OFFICELARGE DATA CENTER ELEC EQUIP,OFFICELARGE ALWAYS_ON,DATACENTER_BOT_ZN_6 ZN,36.20,0.0,7793.661,215.278,N/A,0.000,0.500,0.000,0.500,General,7793.661,7793.661
 ElectricEquipment Internal Gains Nominal, DATACENTER_MID_ZN_6 ZN OFFICE OFFICELARGE DATA CENTER ELEC EQUIP,OFFICELARGE ALWAYS_ON,DATACENTER_MID_ZN_6 ZN,36.20,0.0,7793.661,215.278,N/A,0.000,0.500,0.000,0.500,General,7793.661,7793.661
 ElectricEquipment Internal Gains Nominal, DATACENTER_TOP_ZN_6 ZN OFFICE OFFICELARGE DATA CENTER ELEC EQUIP,OFFICELARGE ALWAYS_ON,DATACENTER_TOP_ZN_6 ZN,36.20,0.0,7793.661,215.278,N/A,0.000,0.500,0.000,0.500,General,7793.661,7793.661
 ElectricEquipment Internal Gains Nominal, DATACENTER_BASEMENT_ZN_6 ZN OFFICE OFFICELARGE MAIN DATA CENTER ELEC EQUIP,OFFICELARGE ALWAYS_ON,DATACENTER_BASEMENT_ZN_6 ZN,783.68,0.0,379595.471,484.376,N/A,0.000,0.500,0.000,0.500,General,379595.471,379595.471
 ElectricEquipment Internal Gains Nominal, BASEMENT ZN OFFICE WHOLEBUILDING - LG OFFICE ELEC EQUIP,OFFICELARGE BLDG_EQUIP_SCH,BASEMENT ZN,2779.43,149.6,22430.180,8.070,149.947,0.000,0.500,0.000,0.500,General,0.000,22430.180
 ElectricEquipment Internal Gains Nominal, CORE_BOTTOM ZN OFFICE WHOLEBUILDING - LG OFFICE ELEC EQUIP,OFFICELARGE BLDG_EQUIP_SCH,CORE_BOTTOM ZN,2496.12,134.3,20143.878,8.070,149.947,0.000,0.500,0.000,0.500,General,0.000,20143.878
 ElectricEquipment Internal Gains Nominal, CORE_MID ZN OFFICE WHOLEBUILDING - LG OFFICE ELEC EQUIP,OFFICELARGE BLDG_EQUIP_SCH,CORE_MID ZN,2496.12,134.3,20143.878,8.070,149.947,0.000,0.500,0.000,0.500,General,0.000,20143.878
 ElectricEquipment Internal Gains Nominal, CORE_TOP ZN OFFICE WHOLEBUILDING - LG OFFICE ELEC EQUIP,OFFICELARGE BLDG_EQUIP_SCH,CORE_TOP ZN,2496.12,134.3,20143.878,8.070,149.947,0.000,0.500,0.000,0.500,General,0.000,20143.878
 ElectricEquipment Internal Gains Nominal, PERIMETER_BOT_ZN_1 ZN OFFICE WHOLEBUILDING - LG OFFICE ELEC EQUIP,OFFICELARGE BLDG_EQUIP_SCH,PERIMETER_BOT_ZN_1 ZN,313.42,16.9,2529.320,8.070,149.947,0.000,0.500,0.000,0.500,General,0.000,2529.320
 ElectricEquipment Internal Gains Nominal, PERIMETER_BOT_ZN_2 ZN OFFICE WHOLEBUILDING - LG OFFICE ELEC EQUIP,OFFICELARGE BLDG_EQUIP_SCH,PERIMETER_BOT_ZN_2 ZN,201.98,10.9,1629.955,8.070,149.947,0.000,0.500,0.000,0.500,General,0.000,1629.955
 ElectricEquipment Internal Gains Nominal, PERIMETER_BOT_ZN_3 ZN OFFICE WHOLEBUILDING - LG OFFICE ELEC EQUIP,OFFICELARGE BLDG_EQUIP_SCH,PERIMETER_BOT_ZN_3 ZN,313.41,16.9,2529.265,8.070,149.947,0.000,0.500,0.000,0.500,General,0.000,2529.265
 ElectricEquipment Internal Gains Nominal, PERIMETER_BOT_ZN_4 ZN OFFICE WHOLEBUILDING - LG OFFICE ELEC EQUIP,OFFICELARGE BLDG_EQUIP_SCH,PERIMETER_BOT_ZN_4 ZN,201.98,10.9,1629.955,8.070,149.947,0.000,0.500,0.000,0.500,General,0.000,1629.955
 ElectricEquipment Internal Gains Nominal, PERIMETER_MID_ZN_1 ZN OFFICE WHOLEBUILDING - LG OFFICE ELEC EQUIP,OFFICELARGE BLDG_EQUIP_SCH,PERIMETER_MID_ZN_1 ZN,313.42,16.9,2529.320,8.070,149.947,0.000,0.500,0.000,0.500,General,0.000,2529.320
 ElectricEquipment Internal Gains Nominal, PERIMETER_MID_ZN_2 ZN OFFICE WHOLEBUILDING - LG OFFICE ELEC EQUIP,OFFICELARGE BLDG_EQUIP_SCH,PERIMETER_MID_ZN_2 ZN,201.98,10.9,1629.955,8.070,149.947,0.000,0.500,0.000,0.500,General,0.000,1629.955
 ElectricEquipment Internal Gains Nominal, PERIMETER_MID_ZN_3 ZN OFFICE WHOLEBUILDING - LG OFFICE ELEC EQUIP,OFFICELARGE BLDG_EQUIP_SCH,PERIMETER_MID_ZN_3 ZN,313.41,16.9,2529.265,8.070,149.947,0.000,0.500,0.000,0.500,General,0.000,2529.265
 ElectricEquipment Internal Gains Nominal, PERIMETER_MID_ZN_4 ZN OFFICE WHOLEBUILDING - LG OFFICE ELEC EQUIP,OFFICELARGE BLDG_EQUIP_SCH,PERIMETER_MID_ZN_4 ZN,201.98,10.9,1629.955,8.070,149.947,0.000,0.500,0.000,0.500,General,0.000,1629.955
 ElectricEquipment Internal Gains Nominal, PERIMETER_TOP_ZN_1 ZN OFFICE WHOLEBUILDING - LG OFFICE ELEC EQUIP,OFFICELARGE BLDG_EQUIP_SCH,PERIMETER_TOP_ZN_1 ZN,313.42,16.9,2529.320,8.070,149.947,0.000,0.500,0.000,0.500,General,0.000,2529.320
 ElectricEquipment Internal Gains Nominal, PERIMETER_TOP_ZN_2 ZN OFFICE WHOLEBUILDING - LG OFFICE ELEC EQUIP,OFFICELARGE BLDG_EQUIP_SCH,PERIMETER_TOP_ZN_2 ZN,201.98,10.9,1629.955,8.070,149.947,0.000,0.500,0.000,0.500,General,0.000,1629.955
 ElectricEquipment Internal Gains Nominal, PERIMETER_TOP_ZN_3 ZN OFFICE WHOLEBUILDING - LG OFFICE ELEC EQUIP,OFFICELARGE BLDG_EQUIP_SCH,PERIMETER_TOP_ZN_3 ZN,313.41,16.9,2529.265,8.070,149.947,0.000,0.500,0.000,0.500,General,0.000,2529.265
 ElectricEquipment Internal Gains Nominal, PERIMETER_TOP_ZN_4 ZN OFFICE WHOLEBUILDING - LG OFFICE ELEC EQUIP,OFFICELARGE BLDG_EQUIP_SCH,PERIMETER_TOP_ZN_4 ZN,201.98,10.9,1629.955,8.070,149.947,0.000,0.500,0.000,0.500,General,0.000,1629.955
! <Shadowing/Sun Position Calculations Annual Simulations>, Calculation Method, Value {days}, Allowable Number Figures in Shadow Overlap {}, Polygon Clipping Algorithm, Sky Diffuse Modeling Algorithm, External Shading Calculation Method, Output External Shading Calculation Results, Disable Self-Shading Within Shading Zone Groups, Disable Self-Shading From Shading Zone Groups to Other Zones
Shadowing/Sun Position Calculations Annual Simulations,AverageOverDaysInFrequency,20,15000,SutherlandHodgman,SimpleSkyDiffuseModeling,InternalCalculation,No,No,No
! <Zone/Window Adjacency Daylighting Counts>, Zone Name, Number of Exterior Windows, Number of Exterior Windows in Adjacent Zones
Zone/Window Adjacency Daylighting Counts, PERIMETER_BOT_ZN_1 ZN,1,0
Zone/Window Adjacency Daylighting Counts, PERIMETER_BOT_ZN_2 ZN,1,0
Zone/Window Adjacency Daylighting Counts, PERIMETER_BOT_ZN_3 ZN,1,0
Zone/Window Adjacency Daylighting Counts, PERIMETER_BOT_ZN_4 ZN,1,0
Zone/Window Adjacency Daylighting Counts, PERIMETER_MID_ZN_1 ZN,1,0
Zone/Window Adjacency Daylighting Counts, PERIMETER_MID_ZN_2 ZN,1,0
Zone/Window Adjacency Daylighting Counts, PERIMETER_MID_ZN_3 ZN,1,0
Zone/Window Adjacency Daylighting Counts, PERIMETER_MID_ZN_4 ZN,1,0
Zone/Window Adjacency Daylighting Counts, PERIMETER_TOP_ZN_1 ZN,1,0
Zone/Window Adjacency Daylighting Counts, PERIMETER_TOP_ZN_2 ZN,1,0
Zone/Window Adjacency Daylighting Counts, PERIMETER_TOP_ZN_3 ZN,1,0
Zone/Window Adjacency Daylighting Counts, PERIMETER_TOP_ZN_4 ZN,1,0
! <Zone/Window Adjacency Daylighting Matrix>, Zone Name, Number of Adjacent Zones with Windows,Adjacent Zone Names - 1st 100 (max)
Zone/Window Adjacency Daylighting Matrix, PERIMETER_BOT_ZN_1 ZN,0
Zone/Window Adjacency Daylighting Matrix, PERIMETER_BOT_ZN_2 ZN,0
Zone/Window Adjacency Daylighting Matrix, PERIMETER_BOT_ZN_3 ZN,0
Zone/Window Adjacency Daylighting Matrix, PERIMETER_BOT_ZN_4 ZN,0
Zone/Window Adjacency Daylighting Matrix, PERIMETER_MID_ZN_1 ZN,0
Zone/Window Adjacency Daylighting Matrix, PERIMETER_MID_ZN_2 ZN,0
Zone/Window Adjacency Daylighting Matrix, PERIMETER_MID_ZN_3 ZN,0
Zone/Window Adjacency Daylighting Matrix, PERIMETER_MID_ZN_4 ZN,0
Zone/Window Adjacency Daylighting Matrix, PERIMETER_TOP_ZN_1 ZN,0
Zone/Window Adjacency Daylighting Matrix, PERIMETER_TOP_ZN_2 ZN,0
Zone/Window Adjacency Daylighting Matrix, PERIMETER_TOP_ZN_3 ZN,0
Zone/Window Adjacency Daylighting Matrix, PERIMETER_TOP_ZN_4 ZN,0
! <Water Heater Information>,Type,Name,Volume {m3},Maximum Capacity {W},Standard Rated Recovery Efficiency, Standard Rated Energy Factor
! <ZoneInfiltration Airflow Stats Nominal>,Name,Schedule Name,Zone Name, Zone Floor Area {m2}, # Zone Occupants,Design Volume Flow Rate {m3/s},Volume Flow Rate/Floor Area {m3/s/m2},Volume Flow Rate/Exterior Surface Area {m3/s/m2},ACH - Air Changes per Hour,Equation A - Constant Term Coefficient {},Equation B - Temperature Term Coefficient {1/C},Equation C - Velocity Term Coefficient {s/m}, Equation D - Velocity Squared Term Coefficient {s2/m2}
 ZoneInfiltration Airflow Stats Nominal, GROUNDFLOOR_PLENUM INFILTRATION,ALWAYS ON DISCRETE,GROUNDFLOOR_PLENUM ZN,3563.11,0.0,0.169,4.749E-005,5.696E-004,0.140,0.000,0.000,0.224,0.000
 ZoneInfiltration Airflow Stats Nominal, MIDFLOOR_PLENUM INFILTRATION,ALWAYS ON DISCRETE,MIDFLOOR_PLENUM ZN,3563.11,0.0,0.169,4.749E-005,5.696E-004,0.140,0.000,0.000,0.224,0.000
 ZoneInfiltration Airflow Stats Nominal, PERIMETER_BOT_ZN_1 INFILTRATION,OFFICELARGE INFIL_SCH_PNNL,PERIMETER_BOT_ZN_1 ZN,313.42,16.9,0.114,3.646E-004,5.696E-004,0.478,0.000,0.000,0.224,0.000
 ZoneInfiltration Airflow Stats Nominal, PERIMETER_BOT_ZN_2 INFILTRATION,OFFICELARGE INFIL_SCH_PNNL,PERIMETER_BOT_ZN_2 ZN,201.98,10.9,7.617E-002,3.771E-004,5.696E-004,0.495,0.000,0.000,0.224,0.000
 ZoneInfiltration Airflow Stats Nominal, PERIMETER_BOT_ZN_3 INFILTRATION,OFFICELARGE INFIL_SCH_PNNL,PERIMETER_BOT_ZN_3 ZN,313.41,16.9,0.114,3.646E-004,5.696E-004,0.478,0.000,0.000,0.224,0.000
 ZoneInfiltration Airflow Stats Nominal, PERIMETER_BOT_ZN_4 INFILTRATION,OFFICELARGE INFIL_SCH_PNNL,PERIMETER_BOT_ZN_4 ZN,201.98,10.9,7.617E-002,3.771E-004,5.696E-004,0.495,0.000,0.000,0.224,0.000
 ZoneInfiltration Airflow Stats Nominal, PERIMETER_MID_ZN_1 INFILTRATION,OFFICELARGE INFIL_SCH_PNNL,PERIMETER_MID_ZN_1 ZN,313.42,16.9,0.114,3.646E-004,5.696E-004,0.478,0.000,0.000,0.224,0.000
 ZoneInfiltration Airflow Stats Nominal, PERIMETER_MID_ZN_2 INFILTRATION,OFFICELARGE INFIL_SCH_PNNL,PERIMETER_MID_ZN_2 ZN,201.98,10.9,7.617E-002,3.771E-004,5.696E-004,0.495,0.000,0.000,0.224,0.000
 ZoneInfiltration Airflow Stats Nominal, PERIMETER_MID_ZN_3 INFILTRATION,OFFICELARGE INFIL_SCH_PNNL,PERIMETER_MID_ZN_3 ZN,313.41,16.9,0.114,3.646E-004,5.696E-004,0.478,0.000,0.000,0.224,0.000
 ZoneInfiltration Airflow Stats Nominal, PERIMETER_MID_ZN_4 INFILTRATION,OFFICELARGE INFIL_SCH_PNNL,PERIMETER_MID_ZN_4 ZN,201.98,10.9,7.617E-002,3.771E-004,5.696E-004,0.495,0.000,0.000,0.224,0.000
 ZoneInfiltration Airflow Stats Nominal, PERIMETER_TOP_ZN_1 INFILTRATION,OFFICELARGE INFIL_SCH_PNNL,PERIMETER_TOP_ZN_1 ZN,313.42,16.9,0.114,3.646E-004,5.696E-004,0.478,0.000,0.000,0.224,0.000
 ZoneInfiltration Airflow Stats Nominal, PERIMETER_TOP_ZN_2 INFILTRATION,OFFICELARGE INFIL_SCH_PNNL,PERIMETER_TOP_ZN_2 ZN,201.98,10.9,7.617E-002,3.771E-004,5.696E-004,0.495,0.000,0.000,0.224,0.000
 ZoneInfiltration Airflow Stats Nominal, PERIMETER_TOP_ZN_3 INFILTRATION,OFFICELARGE INFIL_SCH_PNNL,PERIMETER_TOP_ZN_3 ZN,313.41,16.9,0.114,3.646E-004,5.696E-004,0.478,0.000,0.000,0.224,0.000
 ZoneInfiltration Airflow Stats Nominal, PERIMETER_TOP_ZN_4 INFILTRATION,OFFICELARGE INFIL_SCH_PNNL,PERIMETER_TOP_ZN_4 ZN,201.98,10.9,7.617E-002,3.771E-004,5.696E-004,0.495,0.000,0.000,0.224,0.000
 ZoneInfiltration Airflow Stats Nominal, TOPFLOOR_PLENUM INFILTRATION,ALWAYS ON DISCRETE,TOPFLOOR_PLENUM ZN,3563.11,0.0,0.169,4.749E-005,4.384E-005,0.140,0.000,0.000,0.224,0.000
! <AirFlow Model>, Simple
 AirFlow Model, Simple
! <RoomAir Model>, Zone Name, Mixing/Mundt/UCSDDV/UCSDCV/UCSDUFI/UCSDUFE/User Defined
RoomAir Model,BASEMENT ZN,Mixing/Well-Stirred
RoomAir Model,CORE_BOTTOM ZN,Mixing/Well-Stirred
RoomAir Model,CORE_MID ZN,Mixing/Well-Stirred
RoomAir Model,CORE_TOP ZN,Mixing/Well-Stirred
RoomAir Model,DATACENTER_BASEMENT_ZN_6 ZN,Mixing/Well-Stirred
RoomAir Model,DATACENTER_BOT_ZN_6 ZN,Mixing/Well-Stirred
RoomAir Model,DATACENTER_MID_ZN_6 ZN,Mixing/Well-Stirred
RoomAir Model,DATACENTER_TOP_ZN_6 ZN,Mixing/Well-Stirred
RoomAir Model,GROUNDFLOOR_PLENUM ZN,Mixing/Well-Stirred
RoomAir Model,MIDFLOOR_PLENUM ZN,Mixing/Well-Stirred
RoomAir Model,PERIMETER_BOT_ZN_1 ZN,Mixing/Well-Stirred
RoomAir Model,PERIMETER_BOT_ZN_2 ZN,Mixing/Well-Stirred
RoomAir Model,PERIMETER_BOT_ZN_3 ZN,Mixing/Well-Stirred
RoomAir Model,PERIMETER_BOT_ZN_4 ZN,Mixing/Well-Stirred
RoomAir Model,PERIMETER_MID_ZN_1 ZN,Mixing/Well-Stirred
RoomAir Model,PERIMETER_MID_ZN_2 ZN,Mixing/Well-Stirred
RoomAir Model,PERIMETER_MID_ZN_3 ZN,Mixing/Well-Stirred
RoomAir Model,PERIMETER_MID_ZN_4 ZN,Mixing/Well-Stirred
RoomAir Model,PERIMETER_TOP_ZN_1 ZN,Mixing/Well-Stirred
RoomAir Model,PERIMETER_TOP_ZN_2 ZN,Mixing/Well-Stirred
RoomAir Model,PERIMETER_TOP_ZN_3 ZN,Mixing/Well-Stirred
RoomAir Model,PERIMETER_TOP_ZN_4 ZN,Mixing/Well-Stirred
RoomAir Model,TOPFLOOR_PLENUM ZN,Mixing/Well-Stirred
! <AirflowNetwork Model:Control>, No Multizone or Distribution/Multizone with Distribution/Multizone without Distribution/Multizone with Distribution only during Fan Operation
AirflowNetwork Model:Control,NoMultizoneOrDistribution
! <Zone Volume Capacitance Multiplier>, Sensible Heat Capacity Multiplier, Moisture Capacity Multiplier, Carbon Dioxide Capacity Multiplier, Generic Contaminant Capacity Multiplier
Zone Volume Capacitance Multiplier,   1.000 ,   1.000,   1.000,   1.000
! <Load Timesteps in Zone Design Calculation Averaging Window>, Value
 Load Timesteps in Zone Design Calculation Averaging Window,    6
! <Heating Sizing Factor Information>, Sizing Factor ID, Value
 Heating Sizing Factor Information, Global,   1.0000    
! <Cooling Sizing Factor Information>, Sizing Factor ID, Value
 Cooling Sizing Factor Information, Global,   1.0000    
! <Sky Daylight Factors>, MonthAndDay, Zone Name, Window Name, Daylight Fac: Ref Pt #1, Daylight Fac: Ref Pt #2
 Clear Sky Daylight Factors,07/21,PERIMETER_BOT_ZN_1 ZN,PERIMETER_BOT_ZN_1_WALL_SOUTH_WINDOW,5.8080E-002,0.0000
 Clear Turbid Sky Daylight Factors,07/21,PERIMETER_BOT_ZN_1 ZN,PERIMETER_BOT_ZN_1_WALL_SOUTH_WINDOW,5.5589E-002,0.0000
 Intermediate Sky Daylight Factors,07/21,PERIMETER_BOT_ZN_1 ZN,PERIMETER_BOT_ZN_1_WALL_SOUTH_WINDOW,4.4675E-002,0.0000
 Overcast Sky Daylight Factors,07/21,PERIMETER_BOT_ZN_1 ZN,PERIMETER_BOT_ZN_1_WALL_SOUTH_WINDOW,3.9971E-002,0.0000
 Clear Sky Daylight Factors,07/21,PERIMETER_BOT_ZN_2 ZN,PERIMETER_BOT_ZN_2_WALL_EAST_WINDOW,4.1889E-002,0.0000
 Clear Turbid Sky Daylight Factors,07/21,PERIMETER_BOT_ZN_2 ZN,PERIMETER_BOT_ZN_2_WALL_EAST_WINDOW,3.6860E-002,0.0000
 Intermediate Sky Daylight Factors,07/21,PERIMETER_BOT_ZN_2 ZN,PERIMETER_BOT_ZN_2_WALL_EAST_WINDOW,2.9620E-002,0.0000
 Overcast Sky Daylight Factors,07/21,PERIMETER_BOT_ZN_2 ZN,PERIMETER_BOT_ZN_2_WALL_EAST_WINDOW,4.1124E-002,0.0000
 Clear Sky Daylight Factors,07/21,PERIMETER_BOT_ZN_3 ZN,PERIMETER_BOT_ZN_3_WALL_NORTH_WINDOW,3.2525E-002,0.0000
 Clear Turbid Sky Daylight Factors,07/21,PERIMETER_BOT_ZN_3 ZN,PERIMETER_BOT_ZN_3_WALL_NORTH_WINDOW,2.6660E-002,0.0000
 Intermediate Sky Daylight Factors,07/21,PERIMETER_BOT_ZN_3 ZN,PERIMETER_BOT_ZN_3_WALL_NORTH_WINDOW,1.8933E-002,0.0000
 Overcast Sky Daylight Factors,07/21,PERIMETER_BOT_ZN_3 ZN,PERIMETER_BOT_ZN_3_WALL_NORTH_WINDOW,3.9971E-002,0.0000
 Clear Sky Daylight Factors,07/21,PERIMETER_BOT_ZN_4 ZN,PERIMETER_BOT_ZN_4_WALL_WEST_WINDOW,4.2494E-002,0.0000
 Clear Turbid Sky Daylight Factors,07/21,PERIMETER_BOT_ZN_4 ZN,PERIMETER_BOT_ZN_4_WALL_WEST_WINDOW,3.7543E-002,0.0000
 Intermediate Sky Daylight Factors,07/21,PERIMETER_BOT_ZN_4 ZN,PERIMETER_BOT_ZN_4_WALL_WEST_WINDOW,3.0241E-002,0.0000
 Overcast Sky Daylight Factors,07/21,PERIMETER_BOT_ZN_4 ZN,PERIMETER_BOT_ZN_4_WALL_WEST_WINDOW,4.1124E-002,0.0000
 Clear Sky Daylight Factors,07/21,PERIMETER_MID_ZN_1 ZN,PERIMETER_MID_ZN_1_WALL_SOUTH_WINDOW,6.0705E-002,0.0000
 Clear Turbid Sky Daylight Factors,07/21,PERIMETER_MID_ZN_1 ZN,PERIMETER_MID_ZN_1_WALL_SOUTH_WINDOW,5.8124E-002,0.0000
 Intermediate Sky Daylight Factors,07/21,PERIMETER_MID_ZN_1 ZN,PERIMETER_MID_ZN_1_WALL_SOUTH_WINDOW,4.6690E-002,0.0000
 Overcast Sky Daylight Factors,07/21,PERIMETER_MID_ZN_1 ZN,PERIMETER_MID_ZN_1_WALL_SOUTH_WINDOW,4.1594E-002,0.0000
 Clear Sky Daylight Factors,07/21,PERIMETER_MID_ZN_2 ZN,PERIMETER_MID_ZN_2_WALL_EAST_WINDOW,4.3741E-002,0.0000
 Clear Turbid Sky Daylight Factors,07/21,PERIMETER_MID_ZN_2 ZN,PERIMETER_MID_ZN_2_WALL_EAST_WINDOW,3.8497E-002,0.0000
 Intermediate Sky Daylight Factors,07/21,PERIMETER_MID_ZN_2 ZN,PERIMETER_MID_ZN_2_WALL_EAST_WINDOW,3.0908E-002,0.0000
 Overcast Sky Daylight Factors,07/21,PERIMETER_MID_ZN_2 ZN,PERIMETER_MID_ZN_2_WALL_EAST_WINDOW,4.2755E-002,0.0000
 Clear Sky Daylight Factors,07/21,PERIMETER_MID_ZN_3 ZN,PERIMETER_MID_ZN_3_WALL_NORTH_WINDOW,3.4014E-002,0.0000
 Clear Turbid Sky Daylight Factors,07/21,PERIMETER_MID_ZN_3 ZN,PERIMETER_MID_ZN_3_WALL_NORTH_WINDOW,2.7881E-002,0.0000
 Intermediate Sky Daylight Factors,07/21,PERIMETER_MID_ZN_3 ZN,PERIMETER_MID_ZN_3_WALL_NORTH_WINDOW,1.9777E-002,0.0000
 Overcast Sky Daylight Factors,07/21,PERIMETER_MID_ZN_3 ZN,PERIMETER_MID_ZN_3_WALL_NORTH_WINDOW,4.1595E-002,0.0000
 Clear Sky Daylight Factors,07/21,PERIMETER_MID_ZN_4 ZN,PERIMETER_MID_ZN_4_WALL_WEST_WINDOW,4.4372E-002,0.0000
 Clear Turbid Sky Daylight Factors,07/21,PERIMETER_MID_ZN_4 ZN,PERIMETER_MID_ZN_4_WALL_WEST_WINDOW,3.9209E-002,0.0000
 Intermediate Sky Daylight Factors,07/21,PERIMETER_MID_ZN_4 ZN,PERIMETER_MID_ZN_4_WALL_WEST_WINDOW,3.1555E-002,0.0000
 Overcast Sky Daylight Factors,07/21,PERIMETER_MID_ZN_4 ZN,PERIMETER_MID_ZN_4_WALL_WEST_WINDOW,4.2755E-002,0.0000
 Clear Sky Daylight Factors,07/21,PERIMETER_TOP_ZN_1 ZN,PERIMETER_TOP_ZN_1_WALL_SOUTH_WINDOW,6.0705E-002,0.0000
 Clear Turbid Sky Daylight Factors,07/21,PERIMETER_TOP_ZN_1 ZN,PERIMETER_TOP_ZN_1_WALL_SOUTH_WINDOW,5.8124E-002,0.0000
 Intermediate Sky Daylight Factors,07/21,PERIMETER_TOP_ZN_1 ZN,PERIMETER_TOP_ZN_1_WALL_SOUTH_WINDOW,4.6690E-002,0.0000
 Overcast Sky Daylight Factors,07/21,PERIMETER_TOP_ZN_1 ZN,PERIMETER_TOP_ZN_1_WALL_SOUTH_WINDOW,4.1594E-002,0.0000
 Clear Sky Daylight Factors,07/21,PERIMETER_TOP_ZN_2 ZN,PERIMETER_TOP_ZN_2_WALL_EAST_WINDOW,4.3741E-002,0.0000
 Clear Turbid Sky Daylight Factors,07/21,PERIMETER_TOP_ZN_2 ZN,PERIMETER_TOP_ZN_2_WALL_EAST_WINDOW,3.8497E-002,0.0000
 Intermediate Sky Daylight Factors,07/21,PERIMETER_TOP_ZN_2 ZN,PERIMETER_TOP_ZN_2_WALL_EAST_WINDOW,3.0908E-002,0.0000
 Overcast Sky Daylight Factors,07/21,PERIMETER_TOP_ZN_2 ZN,PERIMETER_TOP_ZN_2_WALL_EAST_WINDOW,4.2755E-002,0.0000
 Clear Sky Daylight Factors,07/21,PERIMETER_TOP_ZN_3 ZN,PERIMETER_TOP_ZN_3_WALL_NORTH_WINDOW,3.4014E-002,0.0000
 Clear Turbid Sky Daylight Factors,07/21,PERIMETER_TOP_ZN_3 ZN,PERIMETER_TOP_ZN_3_WALL_NORTH_WINDOW,2.7881E-002,0.0000
 Intermediate Sky Daylight Factors,07/21,PERIMETER_TOP_ZN_3 ZN,PERIMETER_TOP_ZN_3_WALL_NORTH_WINDOW,1.9777E-002,0.0000
 Overcast Sky Daylight Factors,07/21,PERIMETER_TOP_ZN_3 ZN,PERIMETER_TOP_ZN_3_WALL_NORTH_WINDOW,4.1595E-002,0.0000
 Clear Sky Daylight Factors,07/21,PERIMETER_TOP_ZN_4 ZN,PERIMETER_TOP_ZN_4_WALL_WEST_WINDOW,4.4372E-002,0.0000
 Clear Turbid Sky Daylight Factors,07/21,PERIMETER_TOP_ZN_4 ZN,PERIMETER_TOP_ZN_4_WALL_WEST_WINDOW,3.9209E-002,0.0000
 Intermediate Sky Daylight Factors,07/21,PERIMETER_TOP_ZN_4 ZN,PERIMETER_TOP_ZN_4_WALL_WEST_WINDOW,3.1555E-002,0.0000
 Overcast Sky Daylight Factors,07/21,PERIMETER_TOP_ZN_4 ZN,PERIMETER_TOP_ZN_4_WALL_WEST_WINDOW,4.2755E-002,0.0000
! <Zone Sizing Information>, Zone Name, Load Type, Calc Des Load {W}, User Des Load {W}, Calc Des Air Flow Rate {m3/s}, User Des Air Flow Rate {m3/s}, Design Day Name, Date/Time of Peak, Temperature at Peak {C}, Humidity Ratio at Peak {kgWater/kgDryAir}, Floor Area {m2}, # Occupants, Calc Outdoor Air Flow Rate {m3/s}, Calc DOAS Heat Addition Rate {W}
 Zone Sizing Information, BASEMENT ZN, Cooling, 58995.98243, 58995.98243, 4.34523, 4.34523, CHICAGO OHARE INTL AP ANN CLG .4% CONDNS DB=>MWB, 7/21 08:00:00, 25.53000, 1.49611E-002, 2779.42662, 149.58750, 1.20016, 0.00000
 Zone Sizing Information, BASEMENT ZN, Heating, 2033.96940, 2033.96940, 5.84928E-002, 1.20016, CHICAGO OHARE INTL AP ANN HTG 99.6% CONDNS DB, 1/21 08:30:00, -20.00000, 6.49857E-004, 2779.42662, 149.58750, 1.20016, 0.00000
 Zone Sizing Information, CORE_BOTTOM ZN, Cooling, 91140.66880, 91140.66880, 6.72296, 6.72296, CHICAGO OHARE INTL AP ANN CLG .4% CONDNS DB=>MWB, 7/21 08:00:00, 25.53000, 1.49611E-002, 2496.12046, 134.34009, 1.07782, 0.00000
 Zone Sizing Information, CORE_BOTTOM ZN, Heating, 0.00000, 0.00000, 0.00000, 1.07782, CHICAGO OHARE INTL AP ANN HTG 99.6% CONDNS DB, , -20.00000, 6.49857E-004, 2496.12046, 134.34009, 1.07782, 0.00000
 Zone Sizing Information, CORE_MID ZN, Cooling, 775130.66043, 775130.66043, 57.14097, 57.14097, CHICAGO OHARE INTL AP ANN CLG .4% CONDNS DB=>MWB, 7/21 08:00:00, 25.53000, 1.49611E-002, 2496.12046, 134.34009, 10.77825, 0.00000
 Zone Sizing Information, CORE_MID ZN, Heating, 240448.99191, 240448.99191, 10.57334, 10.77825, CHICAGO OHARE INTL AP ANN HTG 99.6% CONDNS DB, 1/21 08:20:00, -20.00000, 6.49857E-004, 2496.12046, 134.34009, 10.77825, 0.00000
 Zone Sizing Information, CORE_TOP ZN, Cooling, 80083.80155, 80083.80155, 5.90427, 5.90427, CHICAGO OHARE INTL AP ANN CLG .4% CONDNS DB=>MWB, 7/21 08:00:00, 25.53000, 1.49611E-002, 2496.12046, 134.34009, 1.07782, 0.00000
 Zone Sizing Information, CORE_TOP ZN, Heating, 68294.51303, 68294.51303, 2.97433, 2.97433, CHICAGO OHARE INTL AP ANN HTG 99.6% CONDNS DB, 1/21 08:00:00, -20.00000, 6.49857E-004, 2496.12046, 134.34009, 1.07782, 0.00000
 Zone Sizing Information, DATACENTER_BASEMENT_ZN_6 ZN, Cooling, 310169.82980, 310169.82980, 18.20009, 18.20009, CHICAGO OHARE INTL AP ANN CLG .4% CONDNS DB=>MWB, 7/21 05:50:00, 22.97500, 1.49611E-002, 783.67941, 0.00000, 0.00000, 0.00000
 Zone Sizing Information, DATACENTER_BOT_ZN_6 ZN, Cooling, 7695.31031, 7695.31031, 0.45154, 0.45154, CHICAGO OHARE INTL AP ANN CLG .4% CONDNS DB=>MWB, 7/21 18:50:00, 29.46750, 1.49611E-002, 36.20274, 0.00000, 0.00000, 0.00000
 Zone Sizing Information, DATACENTER_MID_ZN_6 ZN, Cooling, 67850.33339, 67850.33339, 3.98131, 3.98131, CHICAGO OHARE INTL AP ANN CLG .4% CONDNS DB=>MWB, 7/21 18:40:00, 29.73000, 1.49611E-002, 36.20274, 0.00000, 0.00000, 0.00000
 Zone Sizing Information, DATACENTER_TOP_ZN_6 ZN, Cooling, 6986.04725, 6986.04725, 0.40993, 0.40993, CHICAGO OHARE INTL AP ANN CLG .4% CONDNS DB=>MWB, 7/21 18:40:00, 29.73000, 1.49611E-002, 36.20274, 0.00000, 0.00000, 0.00000
 Zone Sizing Information, PERIMETER_BOT_ZN_1 ZN, Cooling, 21473.87600, 21473.87600, 1.59773, 1.59773, CHICAGO OHARE INTL AP ANN CLG .4% CONDNS DB=>MWB, 7/21 12:50:00, 32.63500, 1.49611E-002, 313.41969, 16.86811, 0.13533, 0.00000
 Zone Sizing Information, PERIMETER_BOT_ZN_1 ZN, Heating, 10714.91752, 10714.91752, 0.46708, 0.46708, CHICAGO OHARE INTL AP ANN HTG 99.6% CONDNS DB, 1/21 08:00:00, -20.00000, 6.49857E-004, 313.41969, 16.86811, 0.13533, 0.00000
 Zone Sizing Information, PERIMETER_BOT_ZN_2 ZN, Cooling, 18385.26147, 18385.26147, 1.36789, 1.36789, CHICAGO OHARE INTL AP ANN CLG .4% CONDNS DB=>MWB, 7/21 08:20:00, 26.19500, 1.49611E-002, 201.97515, 10.87021, 8.72129E-002, 0.00000
 Zone Sizing Information, PERIMETER_BOT_ZN_2 ZN, Heating, 8659.39907, 8659.39907, 0.37780, 0.37780, CHICAGO OHARE INTL AP ANN HTG 99.6% CONDNS DB, 1/21 08:00:00, -20.00000, 6.49857E-004, 201.97515, 10.87021, 8.72129E-002, 0.00000
 Zone Sizing Information, PERIMETER_BOT_ZN_3 ZN, Cooling, 14841.90336, 14841.90336, 1.10429, 1.10429, CHICAGO OHARE INTL AP ANN CLG .4% CONDNS DB=>MWB, 7/21 14:10:00, 33.30000, 1.49611E-002, 313.41284, 16.86774, 0.13533, 0.00000
 Zone Sizing Information, PERIMETER_BOT_ZN_3 ZN, Heating, 10406.81127, 10406.81127, 0.45361, 0.45361, CHICAGO OHARE INTL AP ANN HTG 99.6% CONDNS DB, 1/21 08:00:00, -20.00000, 6.49857E-004, 313.41284, 16.86774, 0.13533, 0.00000
 Zone Sizing Information, PERIMETER_BOT_ZN_4 ZN, Cooling, 25988.56381, 25988.56381, 1.93362, 1.93362, CHICAGO OHARE INTL AP ANN CLG .4% CONDNS DB=>MWB, 7/21 16:40:00, 32.11000, 1.49611E-002, 201.97515, 10.87021, 8.72129E-002, 0.00000
 Zone Sizing Information, PERIMETER_BOT_ZN_4 ZN, Heating, 0.00000, 0.00000, 0.00000, 8.72129E-002, CHICAGO OHARE INTL AP ANN HTG 99.6% CONDNS DB, , -20.00000, 6.49857E-004, 201.97515, 10.87021, 8.72129E-002, 0.00000
 Zone Sizing Information, PERIMETER_MID_ZN_1 ZN, Cooling, 207259.22402, 207259.22402, 15.42112, 15.42112, CHICAGO OHARE INTL AP ANN CLG .4% CONDNS DB=>MWB, 7/21 12:50:00, 32.63500, 1.49611E-002, 313.41969, 16.86811, 1.35335, 0.00000
 Zone Sizing Information, PERIMETER_MID_ZN_1 ZN, Heating, 182147.91768, 182147.91768, 7.95363, 7.95363, CHICAGO OHARE INTL AP ANN HTG 99.6% CONDNS DB, 1/21 08:00:00, -20.00000, 6.49857E-004, 313.41969, 16.86811, 1.35335, 0.00000
 Zone Sizing Information, PERIMETER_MID_ZN_2 ZN, Cooling, 204592.02203, 204592.02203, 15.22210, 15.22210, CHICAGO OHARE INTL AP ANN CLG .4% CONDNS DB=>MWB, 7/21 08:20:00, 26.19500, 1.49611E-002, 201.97515, 10.87021, 0.87213, 0.00000
 Zone Sizing Information, PERIMETER_MID_ZN_2 ZN, Heating, 119066.36030, 119066.36030, 5.19930, 5.19930, CHICAGO OHARE INTL AP ANN HTG 99.6% CONDNS DB, 1/21 08:00:00, -20.00000, 6.49857E-004, 201.97515, 10.87021, 0.87213, 0.00000
 Zone Sizing Information, PERIMETER_MID_ZN_3 ZN, Cooling, 131633.87619, 131633.87619, 9.79428, 9.79428, CHICAGO OHARE INTL AP ANN CLG .4% CONDNS DB=>MWB, 7/21 14:20:00, 33.30000, 1.49611E-002, 313.41284, 16.86774, 1.35332, 0.00000
 Zone Sizing Information, PERIMETER_MID_ZN_3 ZN, Heating, 180973.42204, 180973.42204, 7.90223, 7.90223, CHICAGO OHARE INTL AP ANN HTG 99.6% CONDNS DB, 1/21 08:00:00, -20.00000, 6.49857E-004, 313.41284, 16.86774, 1.35332, 0.00000
 Zone Sizing Information, PERIMETER_MID_ZN_4 ZN, Cooling, 217835.60590, 217835.60590, 16.20793, 16.20793, CHICAGO OHARE INTL AP ANN CLG .4% CONDNS DB=>MWB, 7/21 16:40:00, 32.11000, 1.49611E-002, 201.97515, 10.87021, 0.87213, 0.00000
 Zone Sizing Information, PERIMETER_MID_ZN_4 ZN, Heating, 103341.76975, 103341.76975, 4.51091, 4.51091, CHICAGO OHARE INTL AP ANN HTG 99.6% CONDNS DB, 1/21 08:00:00, -20.00000, 6.49857E-004, 201.97515, 10.87021, 0.87213, 0.00000
 Zone Sizing Information, PERIMETER_TOP_ZN_1 ZN, Cooling, 21382.69379, 21382.69379, 1.59099, 1.59099, CHICAGO OHARE INTL AP ANN CLG .4% CONDNS DB=>MWB, 7/21 13:00:00, 32.77500, 1.49611E-002, 313.41969, 16.86811, 0.13533, 0.00000
 Zone Sizing Information, PERIMETER_TOP_ZN_1 ZN, Heating, 23368.22325, 23368.22325, 1.02094, 1.02094, CHICAGO OHARE INTL AP ANN HTG 99.6% CONDNS DB, 1/21 08:00:00, -20.00000, 6.49857E-004, 313.41969, 16.86811, 0.13533, 0.00000
 Zone Sizing Information, PERIMETER_TOP_ZN_2 ZN, Cooling, 20559.92558, 20559.92558, 1.52972, 1.52972, CHICAGO OHARE INTL AP ANN CLG .4% CONDNS DB=>MWB, 7/21 08:20:00, 26.19500, 1.49611E-002, 201.97515, 10.87021, 8.72129E-002, 0.00000
 Zone Sizing Information, PERIMETER_TOP_ZN_2 ZN, Heating, 15221.54101, 15221.54101, 0.66503, 0.66503, CHICAGO OHARE INTL AP ANN HTG 99.6% CONDNS DB, 1/21 08:00:00, -20.00000, 6.49857E-004, 201.97515, 10.87021, 8.72129E-002, 0.00000
 Zone Sizing Information, PERIMETER_TOP_ZN_3 ZN, Cooling, 14268.61657, 14268.61657, 1.06167, 1.06167, CHICAGO OHARE INTL AP ANN CLG .4% CONDNS DB=>MWB, 7/21 18:20:00, 30.25500, 1.49611E-002, 313.41284, 16.86774, 0.13533, 0.00000
 Zone Sizing Information, PERIMETER_TOP_ZN_3 ZN, Heating, 23291.72816, 23291.72816, 1.01759, 1.01759, CHICAGO OHARE INTL AP ANN HTG 99.6% CONDNS DB, 1/21 08:00:00, -20.00000, 6.49857E-004, 313.41284, 16.86774, 0.13533, 0.00000
 Zone Sizing Information, PERIMETER_TOP_ZN_4 ZN, Cooling, 22529.26235, 22529.26235, 1.67629, 1.67629, CHICAGO OHARE INTL AP ANN CLG .4% CONDNS DB=>MWB, 7/21 16:40:00, 32.11000, 1.49611E-002, 201.97515, 10.87021, 8.72129E-002, 0.00000
 Zone Sizing Information, PERIMETER_TOP_ZN_4 ZN, Heating, 13391.26222, 13391.26222, 0.58492, 0.58492, CHICAGO OHARE INTL AP ANN HTG 99.6% CONDNS DB, 1/21 08:00:00, -20.00000, 6.49857E-004, 201.97515, 10.87021, 8.72129E-002, 0.00000
! <System Sizing Information>, System Name, Load Type, Peak Load Kind, User Design Capacity, Calc Des Air Flow Rate [m3/s], User Des Air Flow Rate [m3/s], Design Day Name, Date/Time of Peak
 System Sizing Information, CAV_BAS, Cooling, Sensible, 65233.45, 4.35860, 4.35860, CHICAGO OHARE INTL AP ANN CLG .4% CONDNS DB=>MWB, 7/21 00:00:00
 System Sizing Information, CAV_BAS, Heating, Sensible, 52044.35, 1.20016, 1.20016, CHICAGO OHARE INTL AP ANN HTG 99.6% CONDNS DB, 1/21 00:10:00
 System Sizing Information, DATACENTER_BASEMENT_ZN_6 ZN PSZ-AC DATA CENTER, Cooling, Sensible, 305373.58, 18.20009, 18.20009, CHICAGO OHARE INTL AP ANN CLG .4% CONDNS DB=>MWB, 7/21 00:00:00
 System Sizing Information, DATACENTER_BASEMENT_ZN_6 ZN PSZ-AC DATA CENTER, Heating, Sensible, 0.00, 0.00000, 0.00000, ,  00:00:00
 System Sizing Information, DATACENTER_BOT_ZN_6 ZN PSZ-AC DATA CENTER, Cooling, Sensible, 7576.32, 0.45154, 0.45154, CHICAGO OHARE INTL AP ANN CLG .4% CONDNS DB=>MWB, 7/21 00:00:00
 System Sizing Information, DATACENTER_BOT_ZN_6 ZN PSZ-AC DATA CENTER, Heating, Sensible, 0.00, 0.00000, 0.00000, ,  00:00:00
 System Sizing Information, DATACENTER_MID_ZN_6 ZN PSZ-AC DATA CENTER, Cooling, Sensible, 66801.14, 3.98131, 3.98131, CHICAGO OHARE INTL AP ANN CLG .4% CONDNS DB=>MWB, 7/21 00:00:00
 System Sizing Information, DATACENTER_MID_ZN_6 ZN PSZ-AC DATA CENTER, Heating, Sensible, 0.00, 0.00000, 0.00000, ,  00:00:00
 System Sizing Information, DATACENTER_TOP_ZN_6 ZN PSZ-AC DATA CENTER, Cooling, Sensible, 6878.02, 0.40993, 0.40993, CHICAGO OHARE INTL AP ANN CLG .4% CONDNS DB=>MWB, 7/21 00:00:00
 System Sizing Information, DATACENTER_TOP_ZN_6 ZN PSZ-AC DATA CENTER, Heating, Sensible, 0.00, 0.00000, 0.00000, ,  00:00:00
 System Sizing Information, VAV_BOT WITH REHEAT, Cooling, Sensible, 173676.66, 11.23830, 11.23830, CHICAGO OHARE INTL AP ANN CLG .4% CONDNS DB=>MWB, 7/21 00:00:00
 System Sizing Information, VAV_BOT WITH REHEAT, Heating, Sensible, 95477.55, 2.46353, 2.46353, CHICAGO OHARE INTL AP ANN HTG 99.6% CONDNS DB, 1/21 08:00:00
 System Sizing Information, VAV_MID WITH REHEAT, Cooling, Sensible, 1285807.54, 96.40556, 96.40556, CHICAGO OHARE INTL AP ANN CLG .4% CONDNS DB=>MWB, 7/21 05:00:00
 System Sizing Information, VAV_MID WITH REHEAT, Heating, Sensible, 185813.69, 15.22917, 15.22917, CHICAGO OHARE INTL AP ANN CLG .4% CONDNS DB=>MWB, 7/21 05:00:00
 System Sizing Information, VAV_TOP WITH REHEAT, Cooling, Sensible, 164082.57, 10.31900, 10.31900, CHICAGO OHARE INTL AP ANN CLG .4% CONDNS DB=>MWB, 7/21 00:00:00
 System Sizing Information, VAV_TOP WITH REHEAT, Heating, Sensible, 98201.37, 6.26282, 6.26282, CHICAGO OHARE INTL AP ANN HTG 99.6% CONDNS DB, 1/21 05:20:00
! <Component Sizing Information>, Component Type, Component Name, Input Field Description, Value
 Component Sizing Information, AirTerminal:SingleDuct:VAV:Reheat, BASEMENT ZN VAV TERM, Design Size Maximum Air Flow Rate [m3/s], 4.34523
 Component Sizing Information, AirTerminal:SingleDuct:VAV:Reheat, BASEMENT ZN VAV TERM, Design Size Constant Minimum Air Flow Fraction, 0.48741
 Component Sizing Information, AirTerminal:SingleDuct:VAV:Reheat, BASEMENT ZN VAV TERM, User-Specified Constant Minimum Air Flow Fraction, 0.20000
 Component Sizing Information, AirTerminal:SingleDuct:VAV:Reheat, BASEMENT ZN VAV TERM, Design Size Minimum Air Flow Rate [m3/s], 0.86905
 Component Sizing Information, AirTerminal:SingleDuct:VAV:Reheat, BASEMENT ZN VAV TERM, Design Size Maximum Flow Fraction during Reheat [], 1.00000
 Component Sizing Information, AirTerminal:SingleDuct:VAV:Reheat, BASEMENT ZN VAV TERM, User-Specified Maximum Flow Fraction during Reheat [], 0.50000
 Component Sizing Information, AirTerminal:SingleDuct:VAV:Reheat, BASEMENT ZN VAV TERM, Design Size Maximum Flow per Zone Floor Area during Reheat [m3/s-m2], 1.56336E-003
 Component Sizing Information, AirTerminal:SingleDuct:VAV:Reheat, BASEMENT ZN VAV TERM, User-Specified Maximum Flow per Zone Floor Area during Reheat [m3/s-m2], 0.00000
 Component Sizing Information, AirTerminal:SingleDuct:VAV:Reheat, BASEMENT ZN VAV TERM, Design Size Maximum Reheat Water Flow Rate [m3/s], 1.42222E-004
 Component Sizing Information, AirTerminal:SingleDuct:VAV:Reheat, BASEMENT ZN VAV TERM, Design Size Reheat Coil Sizing Air Volume Flow Rate [m3/s], 0.86905
 Component Sizing Information, AirTerminal:SingleDuct:VAV:Reheat, BASEMENT ZN VAV TERM, Design Size Reheat Coil Sizing Inlet Air Temperature [C], 16.70000
 Component Sizing Information, AirTerminal:SingleDuct:VAV:Reheat, BASEMENT ZN VAV TERM, Design Size Reheat Coil Sizing Inlet Air Humidity Ratio [kgWater/kgDryAir], 8.00000E-003
 Component Sizing Information, Coil:Heating:Water, BASEMENT ZN RHT COIL, Design Size Rated Capacity [W], 6612.62714
 Component Sizing Information, Coil:Heating:Water, BASEMENT ZN RHT COIL, Design Size Maximum Water Flow Rate [m3/s], 1.42222E-004
 Component Sizing Information, Coil:Heating:Water, BASEMENT ZN RHT COIL, Design Size U-Factor Times Area Value [W/K], 117.68346
! <Water Heating Coil Capacity Information>,Component Type,Name,Nominal Total Capacity {W}
Water Heating Coil Capacity Information,Coil:Heating:Water,BASEMENT ZN RHT COIL,6516.54
 Component Sizing Information, AirTerminal:SingleDuct:VAV:Reheat, CORE_BOTTOM ZN VAV TERM, Design Size Maximum Air Flow Rate [m3/s], 6.72296
 Component Sizing Information, AirTerminal:SingleDuct:VAV:Reheat, CORE_BOTTOM ZN VAV TERM, Design Size Constant Minimum Air Flow Fraction, 0.28292
 Component Sizing Information, AirTerminal:SingleDuct:VAV:Reheat, CORE_BOTTOM ZN VAV TERM, User-Specified Constant Minimum Air Flow Fraction, 0.29957
 Component Sizing Information, AirTerminal:SingleDuct:VAV:Reheat, CORE_BOTTOM ZN VAV TERM, Design Size Minimum Air Flow Rate [m3/s], 2.01399
 Component Sizing Information, AirTerminal:SingleDuct:VAV:Reheat, CORE_BOTTOM ZN VAV TERM, Design Size Maximum Flow Fraction during Reheat [], 0.75445
 Component Sizing Information, AirTerminal:SingleDuct:VAV:Reheat, CORE_BOTTOM ZN VAV TERM, User-Specified Maximum Flow Fraction during Reheat [], 0.50000
 Component Sizing Information, AirTerminal:SingleDuct:VAV:Reheat, CORE_BOTTOM ZN VAV TERM, Design Size Maximum Flow per Zone Floor Area during Reheat [m3/s-m2], 1.34668E-003
 Component Sizing Information, AirTerminal:SingleDuct:VAV:Reheat, CORE_BOTTOM ZN VAV TERM, Design Size Maximum Reheat Water Flow Rate [m3/s], 4.33131E-004
 Component Sizing Information, AirTerminal:SingleDuct:VAV:Reheat, CORE_BOTTOM ZN VAV TERM, Design Size Reheat Coil Sizing Air Volume Flow Rate [m3/s], 2.01399
 Component Sizing Information, AirTerminal:SingleDuct:VAV:Reheat, CORE_BOTTOM ZN VAV TERM, Design Size Reheat Coil Sizing Inlet Air Temperature [C], 12.80000
 Component Sizing Information, AirTerminal:SingleDuct:VAV:Reheat, CORE_BOTTOM ZN VAV TERM, Design Size Reheat Coil Sizing Inlet Air Humidity Ratio [kgWater/kgDryAir], 8.00000E-003
 Component Sizing Information, Coil:Heating:Water, CORE_BOTTOM ZN RHT COIL, Design Size Rated Capacity [W], 20138.53140
 Component Sizing Information, Coil:Heating:Water, CORE_BOTTOM ZN RHT COIL, Design Size Maximum Water Flow Rate [m3/s], 4.33131E-004
 Component Sizing Information, Coil:Heating:Water, CORE_BOTTOM ZN RHT COIL, Design Size U-Factor Times Area Value [W/K], 343.61924
Water Heating Coil Capacity Information,Coil:Heating:Water,CORE_BOTTOM ZN RHT COIL,18727.05
 Component Sizing Information, AirTerminal:SingleDuct:VAV:Reheat, CORE_MID ZN VAV TERM, Design Size Maximum Air Flow Rate [m3/s], 57.14097
 Component Sizing Information, AirTerminal:SingleDuct:VAV:Reheat, CORE_MID ZN VAV TERM, Design Size Constant Minimum Air Flow Fraction, 0.33287
 Component Sizing Information, AirTerminal:SingleDuct:VAV:Reheat, CORE_MID ZN VAV TERM, User-Specified Constant Minimum Air Flow Fraction, 0.20000
 Component Sizing Information, AirTerminal:SingleDuct:VAV:Reheat, CORE_MID ZN VAV TERM, Design Size Minimum Air Flow Rate [m3/s], 11.42819
 Component Sizing Information, AirTerminal:SingleDuct:VAV:Reheat, CORE_MID ZN VAV TERM, Design Size Maximum Flow Fraction during Reheat [], 0.88765
 Component Sizing Information, AirTerminal:SingleDuct:VAV:Reheat, CORE_MID ZN VAV TERM, User-Specified Maximum Flow Fraction during Reheat [], 0.50000
 Component Sizing Information, AirTerminal:SingleDuct:VAV:Reheat, CORE_MID ZN VAV TERM, Design Size Maximum Flow per Zone Floor Area during Reheat [m3/s-m2], 1.14460E-003
 Component Sizing Information, AirTerminal:SingleDuct:VAV:Reheat, CORE_MID ZN VAV TERM, Design Size Maximum Reheat Water Flow Rate [m3/s], 7.71706E-003
 Component Sizing Information, AirTerminal:SingleDuct:VAV:Reheat, CORE_MID ZN VAV TERM, Design Size Reheat Coil Sizing Air Volume Flow Rate [m3/s], 11.42819
 Component Sizing Information, AirTerminal:SingleDuct:VAV:Reheat, CORE_MID ZN VAV TERM, Design Size Reheat Coil Sizing Inlet Air Temperature [C], 12.80000
 Component Sizing Information, AirTerminal:SingleDuct:VAV:Reheat, CORE_MID ZN VAV TERM, Design Size Reheat Coil Sizing Inlet Air Humidity Ratio [kgWater/kgDryAir], 8.00000E-003
 Component Sizing Information, Coil:Heating:Water, CORE_MID ZN RHT COIL, Design Size Rated Capacity [W], 358806.60743
 Component Sizing Information, Coil:Heating:Water, CORE_MID ZN RHT COIL, Design Size Maximum Water Flow Rate [m3/s], 7.71706E-003
 Component Sizing Information, Coil:Heating:Water, CORE_MID ZN RHT COIL, Design Size U-Factor Times Area Value [W/K], 7214.19734
Water Heating Coil Capacity Information,Coil:Heating:Water,CORE_MID ZN RHT COIL,333713.15
 Component Sizing Information, AirTerminal:SingleDuct:VAV:Reheat, CORE_TOP ZN VAV TERM, Design Size Maximum Air Flow Rate [m3/s], 5.90427
 Component Sizing Information, AirTerminal:SingleDuct:VAV:Reheat, CORE_TOP ZN VAV TERM, Design Size Constant Minimum Air Flow Fraction, 0.32215
 Component Sizing Information, AirTerminal:SingleDuct:VAV:Reheat, CORE_TOP ZN VAV TERM, User-Specified Constant Minimum Air Flow Fraction, 0.33410
 Component Sizing Information, AirTerminal:SingleDuct:VAV:Reheat, CORE_TOP ZN VAV TERM, Design Size Minimum Air Flow Rate [m3/s], 1.97262
 Component Sizing Information, AirTerminal:SingleDuct:VAV:Reheat, CORE_TOP ZN VAV TERM, Design Size Maximum Flow Fraction during Reheat [], 0.85906
 Component Sizing Information, AirTerminal:SingleDuct:VAV:Reheat, CORE_TOP ZN VAV TERM, User-Specified Maximum Flow Fraction during Reheat [], 0.50000
 Component Sizing Information, AirTerminal:SingleDuct:VAV:Reheat, CORE_TOP ZN VAV TERM, Design Size Maximum Flow per Zone Floor Area during Reheat [m3/s-m2], 1.18269E-003
 Component Sizing Information, AirTerminal:SingleDuct:VAV:Reheat, CORE_TOP ZN VAV TERM, Design Size Maximum Reheat Water Flow Rate [m3/s], 2.13346E-003
 Component Sizing Information, AirTerminal:SingleDuct:VAV:Reheat, CORE_TOP ZN VAV TERM, Design Size Reheat Coil Sizing Air Volume Flow Rate [m3/s], 2.97433
 Component Sizing Information, AirTerminal:SingleDuct:VAV:Reheat, CORE_TOP ZN VAV TERM, Design Size Reheat Coil Sizing Inlet Air Temperature [C], 12.80000
 Component Sizing Information, AirTerminal:SingleDuct:VAV:Reheat, CORE_TOP ZN VAV TERM, Design Size Reheat Coil Sizing Inlet Air Humidity Ratio [kgWater/kgDryAir], 8.00000E-003
 Component Sizing Information, Coil:Heating:Water, CORE_TOP ZN RHT COIL, Design Size Rated Capacity [W], 99195.61220
 Component Sizing Information, Coil:Heating:Water, CORE_TOP ZN RHT COIL, Design Size Maximum Water Flow Rate [m3/s], 2.13346E-003
 Component Sizing Information, Coil:Heating:Water, CORE_TOP ZN RHT COIL, Design Size U-Factor Times Area Value [W/K], 2029.15593
Water Heating Coil Capacity Information,Coil:Heating:Water,CORE_TOP ZN RHT COIL,92252.82
 Component Sizing Information, AirTerminal:SingleDuct:Uncontrolled, DATACENTER_BASEMENT_ZN_6 ZN PSZ-AC DATA CENTER DIFFUSER, Design Size Maximum Air Flow Rate [m3/s], 18.20009
 Component Sizing Information, AirTerminal:SingleDuct:Uncontrolled, DATACENTER_BOT_ZN_6 ZN PSZ-AC DATA CENTER DIFFUSER, Design Size Maximum Air Flow Rate [m3/s], 0.45154
 Component Sizing Information, AirTerminal:SingleDuct:Uncontrolled, DATACENTER_MID_ZN_6 ZN PSZ-AC DATA CENTER DIFFUSER, Design Size Maximum Air Flow Rate [m3/s], 3.98131
 Component Sizing Information, AirTerminal:SingleDuct:Uncontrolled, DATACENTER_TOP_ZN_6 ZN PSZ-AC DATA CENTER DIFFUSER, Design Size Maximum Air Flow Rate [m3/s], 0.40993
 Component Sizing Information, AirTerminal:SingleDuct:VAV:Reheat, PERIMETER_BOT_ZN_1 ZN VAV TERM, Design Size Maximum Air Flow Rate [m3/s], 1.59773
 Component Sizing Information, AirTerminal:SingleDuct:VAV:Reheat, PERIMETER_BOT_ZN_1 ZN VAV TERM, Design Size Constant Minimum Air Flow Fraction, 0.14948
 Component Sizing Information, AirTerminal:SingleDuct:VAV:Reheat, PERIMETER_BOT_ZN_1 ZN VAV TERM, User-Specified Constant Minimum Air Flow Fraction, 0.20000
 Component Sizing Information, AirTerminal:SingleDuct:VAV:Reheat, PERIMETER_BOT_ZN_1 ZN VAV TERM, Design Size Minimum Air Flow Rate [m3/s], 0.31955
 Component Sizing Information, AirTerminal:SingleDuct:VAV:Reheat, PERIMETER_BOT_ZN_1 ZN VAV TERM, Design Size Maximum Flow Fraction during Reheat [], 0.39861
 Component Sizing Information, AirTerminal:SingleDuct:VAV:Reheat, PERIMETER_BOT_ZN_1 ZN VAV TERM, User-Specified Maximum Flow Fraction during Reheat [], 0.50000
 Component Sizing Information, AirTerminal:SingleDuct:VAV:Reheat, PERIMETER_BOT_ZN_1 ZN VAV TERM, Design Size Maximum Flow per Zone Floor Area during Reheat [m3/s-m2], 2.54886E-003
 Component Sizing Information, AirTerminal:SingleDuct:VAV:Reheat, PERIMETER_BOT_ZN_1 ZN VAV TERM, Design Size Maximum Reheat Water Flow Rate [m3/s], 3.34743E-004
 Component Sizing Information, AirTerminal:SingleDuct:VAV:Reheat, PERIMETER_BOT_ZN_1 ZN VAV TERM, Design Size Reheat Coil Sizing Air Volume Flow Rate [m3/s], 0.46708
 Component Sizing Information, AirTerminal:SingleDuct:VAV:Reheat, PERIMETER_BOT_ZN_1 ZN VAV TERM, Design Size Reheat Coil Sizing Inlet Air Temperature [C], 12.80000
 Component Sizing Information, AirTerminal:SingleDuct:VAV:Reheat, PERIMETER_BOT_ZN_1 ZN VAV TERM, Design Size Reheat Coil Sizing Inlet Air Humidity Ratio [kgWater/kgDryAir], 8.00000E-003
 Component Sizing Information, Coil:Heating:Water, PERIMETER_BOT_ZN_1 ZN RHT COIL, Design Size Rated Capacity [W], 15563.96254
 Component Sizing Information, Coil:Heating:Water, PERIMETER_BOT_ZN_1 ZN RHT COIL, Design Size Maximum Water Flow Rate [m3/s], 3.34743E-004
 Component Sizing Information, Coil:Heating:Water, PERIMETER_BOT_ZN_1 ZN RHT COIL, Design Size U-Factor Times Area Value [W/K], 318.29486
Water Heating Coil Capacity Information,Coil:Heating:Water,PERIMETER_BOT_ZN_1 ZN RHT COIL,14474.64
 Component Sizing Information, AirTerminal:SingleDuct:VAV:Reheat, PERIMETER_BOT_ZN_2 ZN VAV TERM, Design Size Maximum Air Flow Rate [m3/s], 1.36789
 Component Sizing Information, AirTerminal:SingleDuct:VAV:Reheat, PERIMETER_BOT_ZN_2 ZN VAV TERM, Design Size Constant Minimum Air Flow Fraction, 0.11251
 Component Sizing Information, AirTerminal:SingleDuct:VAV:Reheat, PERIMETER_BOT_ZN_2 ZN VAV TERM, User-Specified Constant Minimum Air Flow Fraction, 0.20000
 Component Sizing Information, AirTerminal:SingleDuct:VAV:Reheat, PERIMETER_BOT_ZN_2 ZN VAV TERM, Design Size Minimum Air Flow Rate [m3/s], 0.27358
 Component Sizing Information, AirTerminal:SingleDuct:VAV:Reheat, PERIMETER_BOT_ZN_2 ZN VAV TERM, Design Size Maximum Flow Fraction during Reheat [], 0.30003
 Component Sizing Information, AirTerminal:SingleDuct:VAV:Reheat, PERIMETER_BOT_ZN_2 ZN VAV TERM, User-Specified Maximum Flow Fraction during Reheat [], 0.50000
 Component Sizing Information, AirTerminal:SingleDuct:VAV:Reheat, PERIMETER_BOT_ZN_2 ZN VAV TERM, Design Size Maximum Flow per Zone Floor Area during Reheat [m3/s-m2], 3.38628E-003
 Component Sizing Information, AirTerminal:SingleDuct:VAV:Reheat, PERIMETER_BOT_ZN_2 ZN VAV TERM, Design Size Maximum Reheat Water Flow Rate [m3/s], 2.70625E-004
 Component Sizing Information, AirTerminal:SingleDuct:VAV:Reheat, PERIMETER_BOT_ZN_2 ZN VAV TERM, Design Size Reheat Coil Sizing Air Volume Flow Rate [m3/s], 0.37780
 Component Sizing Information, AirTerminal:SingleDuct:VAV:Reheat, PERIMETER_BOT_ZN_2 ZN VAV TERM, Design Size Reheat Coil Sizing Inlet Air Temperature [C], 12.80000
 Component Sizing Information, AirTerminal:SingleDuct:VAV:Reheat, PERIMETER_BOT_ZN_2 ZN VAV TERM, Design Size Reheat Coil Sizing Inlet Air Humidity Ratio [kgWater/kgDryAir], 8.00000E-003
 Component Sizing Information, Coil:Heating:Water, PERIMETER_BOT_ZN_2 ZN RHT COIL, Design Size Rated Capacity [W], 12582.78692
 Component Sizing Information, Coil:Heating:Water, PERIMETER_BOT_ZN_2 ZN RHT COIL, Design Size Maximum Water Flow Rate [m3/s], 2.70625E-004
 Component Sizing Information, Coil:Heating:Water, PERIMETER_BOT_ZN_2 ZN RHT COIL, Design Size U-Factor Times Area Value [W/K], 257.28988
Water Heating Coil Capacity Information,Coil:Heating:Water,PERIMETER_BOT_ZN_2 ZN RHT COIL,11702.12
 Component Sizing Information, AirTerminal:SingleDuct:VAV:Reheat, PERIMETER_BOT_ZN_3 ZN VAV TERM, Design Size Maximum Air Flow Rate [m3/s], 1.10429
 Component Sizing Information, AirTerminal:SingleDuct:VAV:Reheat, PERIMETER_BOT_ZN_3 ZN VAV TERM, Design Size Constant Minimum Air Flow Fraction, 0.21627
 Component Sizing Information, AirTerminal:SingleDuct:VAV:Reheat, PERIMETER_BOT_ZN_3 ZN VAV TERM, User-Specified Constant Minimum Air Flow Fraction, 0.21909
 Component Sizing Information, AirTerminal:SingleDuct:VAV:Reheat, PERIMETER_BOT_ZN_3 ZN VAV TERM, Design Size Minimum Air Flow Rate [m3/s], 0.24194
 Component Sizing Information, AirTerminal:SingleDuct:VAV:Reheat, PERIMETER_BOT_ZN_3 ZN VAV TERM, Design Size Maximum Flow Fraction during Reheat [], 0.57671
 Component Sizing Information, AirTerminal:SingleDuct:VAV:Reheat, PERIMETER_BOT_ZN_3 ZN VAV TERM, User-Specified Maximum Flow Fraction during Reheat [], 0.50000
 Component Sizing Information, AirTerminal:SingleDuct:VAV:Reheat, PERIMETER_BOT_ZN_3 ZN VAV TERM, Design Size Maximum Flow per Zone Floor Area during Reheat [m3/s-m2], 1.76172E-003
 Component Sizing Information, AirTerminal:SingleDuct:VAV:Reheat, PERIMETER_BOT_ZN_3 ZN VAV TERM, Design Size Maximum Reheat Water Flow Rate [m3/s], 3.25101E-004
 Component Sizing Information, AirTerminal:SingleDuct:VAV:Reheat, PERIMETER_BOT_ZN_3 ZN VAV TERM, Design Size Reheat Coil Sizing Air Volume Flow Rate [m3/s], 0.45361
 Component Sizing Information, AirTerminal:SingleDuct:VAV:Reheat, PERIMETER_BOT_ZN_3 ZN VAV TERM, Design Size Reheat Coil Sizing Inlet Air Temperature [C], 12.80000
 Component Sizing Information, AirTerminal:SingleDuct:VAV:Reheat, PERIMETER_BOT_ZN_3 ZN VAV TERM, Design Size Reheat Coil Sizing Inlet Air Humidity Ratio [kgWater/kgDryAir], 8.00000E-003
 Component Sizing Information, Coil:Heating:Water, PERIMETER_BOT_ZN_3 ZN RHT COIL, Design Size Rated Capacity [W], 15115.64001
 Component Sizing Information, Coil:Heating:Water, PERIMETER_BOT_ZN_3 ZN RHT COIL, Design Size Maximum Water Flow Rate [m3/s], 3.25101E-004
 Component Sizing Information, Coil:Heating:Water, PERIMETER_BOT_ZN_3 ZN RHT COIL, Design Size U-Factor Times Area Value [W/K], 309.13078
Water Heating Coil Capacity Information,Coil:Heating:Water,PERIMETER_BOT_ZN_3 ZN RHT COIL,14057.69
 Component Sizing Information, AirTerminal:SingleDuct:VAV:Reheat, PERIMETER_BOT_ZN_4 ZN VAV TERM, Design Size Maximum Air Flow Rate [m3/s], 1.93362
 Component Sizing Information, AirTerminal:SingleDuct:VAV:Reheat, PERIMETER_BOT_ZN_4 ZN VAV TERM, Design Size Constant Minimum Air Flow Fraction, 7.95944E-002
 Component Sizing Information, AirTerminal:SingleDuct:VAV:Reheat, PERIMETER_BOT_ZN_4 ZN VAV TERM, User-Specified Constant Minimum Air Flow Fraction, 0.20000
 Component Sizing Information, AirTerminal:SingleDuct:VAV:Reheat, PERIMETER_BOT_ZN_4 ZN VAV TERM, Design Size Minimum Air Flow Rate [m3/s], 0.38672
 Component Sizing Information, AirTerminal:SingleDuct:VAV:Reheat, PERIMETER_BOT_ZN_4 ZN VAV TERM, Design Size Maximum Flow Fraction during Reheat [], 0.30000
 Component Sizing Information, AirTerminal:SingleDuct:VAV:Reheat, PERIMETER_BOT_ZN_4 ZN VAV TERM, User-Specified Maximum Flow Fraction during Reheat [], 0.50000
 Component Sizing Information, AirTerminal:SingleDuct:VAV:Reheat, PERIMETER_BOT_ZN_4 ZN VAV TERM, Design Size Maximum Flow per Zone Floor Area during Reheat [m3/s-m2], 4.78677E-003
 Component Sizing Information, AirTerminal:SingleDuct:VAV:Reheat, PERIMETER_BOT_ZN_4 ZN VAV TERM, Design Size Maximum Reheat Water Flow Rate [m3/s], 8.31690E-005
 Component Sizing Information, AirTerminal:SingleDuct:VAV:Reheat, PERIMETER_BOT_ZN_4 ZN VAV TERM, Design Size Reheat Coil Sizing Air Volume Flow Rate [m3/s], 0.38672
 Component Sizing Information, AirTerminal:SingleDuct:VAV:Reheat, PERIMETER_BOT_ZN_4 ZN VAV TERM, Design Size Reheat Coil Sizing Inlet Air Temperature [C], 12.80000
 Component Sizing Information, AirTerminal:SingleDuct:VAV:Reheat, PERIMETER_BOT_ZN_4 ZN VAV TERM, Design Size Reheat Coil Sizing Inlet Air Humidity Ratio [kgWater/kgDryAir], 8.00000E-003
 Component Sizing Information, Coil:Heating:Water, PERIMETER_BOT_ZN_4 ZN RHT COIL, Design Size Rated Capacity [W], 3866.96374
 Component Sizing Information, Coil:Heating:Water, PERIMETER_BOT_ZN_4 ZN RHT COIL, Design Size Maximum Water Flow Rate [m3/s], 8.31690E-005
 Component Sizing Information, Coil:Heating:Water, PERIMETER_BOT_ZN_4 ZN RHT COIL, Design Size U-Factor Times Area Value [W/K], 65.98113
Water Heating Coil Capacity Information,Coil:Heating:Water,PERIMETER_BOT_ZN_4 ZN RHT COIL,3595.93
 Component Sizing Information, AirTerminal:SingleDuct:VAV:Reheat, PERIMETER_MID_ZN_1 ZN VAV TERM, Design Size Maximum Air Flow Rate [m3/s], 15.42112
 Component Sizing Information, AirTerminal:SingleDuct:VAV:Reheat, PERIMETER_MID_ZN_1 ZN VAV TERM, Design Size Constant Minimum Air Flow Fraction, 0.15487
 Component Sizing Information, AirTerminal:SingleDuct:VAV:Reheat, PERIMETER_MID_ZN_1 ZN VAV TERM, User-Specified Constant Minimum Air Flow Fraction, 0.20000
 Component Sizing Information, AirTerminal:SingleDuct:VAV:Reheat, PERIMETER_MID_ZN_1 ZN VAV TERM, Design Size Minimum Air Flow Rate [m3/s], 3.08422
 Component Sizing Information, AirTerminal:SingleDuct:VAV:Reheat, PERIMETER_MID_ZN_1 ZN VAV TERM, Design Size Maximum Flow Fraction during Reheat [], 0.41298
 Component Sizing Information, AirTerminal:SingleDuct:VAV:Reheat, PERIMETER_MID_ZN_1 ZN VAV TERM, User-Specified Maximum Flow Fraction during Reheat [], 0.50000
 Component Sizing Information, AirTerminal:SingleDuct:VAV:Reheat, PERIMETER_MID_ZN_1 ZN VAV TERM, Design Size Maximum Flow per Zone Floor Area during Reheat [m3/s-m2], 2.46014E-003
 Component Sizing Information, AirTerminal:SingleDuct:VAV:Reheat, PERIMETER_MID_ZN_1 ZN VAV TERM, Design Size Maximum Reheat Water Flow Rate [m3/s], 5.69377E-003
 Component Sizing Information, AirTerminal:SingleDuct:VAV:Reheat, PERIMETER_MID_ZN_1 ZN VAV TERM, Design Size Reheat Coil Sizing Air Volume Flow Rate [m3/s], 7.95363
 Component Sizing Information, AirTerminal:SingleDuct:VAV:Reheat, PERIMETER_MID_ZN_1 ZN VAV TERM, Design Size Reheat Coil Sizing Inlet Air Temperature [C], 12.80000
 Component Sizing Information, AirTerminal:SingleDuct:VAV:Reheat, PERIMETER_MID_ZN_1 ZN VAV TERM, Design Size Reheat Coil Sizing Inlet Air Humidity Ratio [kgWater/kgDryAir], 8.00000E-003
 Component Sizing Information, Coil:Heating:Water, PERIMETER_MID_ZN_1 ZN RHT COIL, Design Size Rated Capacity [W], 264733.50062
 Component Sizing Information, Coil:Heating:Water, PERIMETER_MID_ZN_1 ZN RHT COIL, Design Size Maximum Water Flow Rate [m3/s], 5.69377E-003
 Component Sizing Information, Coil:Heating:Water, PERIMETER_MID_ZN_1 ZN RHT COIL, Design Size U-Factor Times Area Value [W/K], 5412.19772
Water Heating Coil Capacity Information,Coil:Heating:Water,PERIMETER_MID_ZN_1 ZN RHT COIL,246204.96
 Component Sizing Information, AirTerminal:SingleDuct:VAV:Reheat, PERIMETER_MID_ZN_2 ZN VAV TERM, Design Size Maximum Air Flow Rate [m3/s], 15.22210
 Component Sizing Information, AirTerminal:SingleDuct:VAV:Reheat, PERIMETER_MID_ZN_2 ZN VAV TERM, Design Size Constant Minimum Air Flow Fraction, 0.10111
 Component Sizing Information, AirTerminal:SingleDuct:VAV:Reheat, PERIMETER_MID_ZN_2 ZN VAV TERM, User-Specified Constant Minimum Air Flow Fraction, 0.20000
 Component Sizing Information, AirTerminal:SingleDuct:VAV:Reheat, PERIMETER_MID_ZN_2 ZN VAV TERM, Design Size Minimum Air Flow Rate [m3/s], 3.04442
 Component Sizing Information, AirTerminal:SingleDuct:VAV:Reheat, PERIMETER_MID_ZN_2 ZN VAV TERM, Design Size Maximum Flow Fraction during Reheat [], 0.30000
 Component Sizing Information, AirTerminal:SingleDuct:VAV:Reheat, PERIMETER_MID_ZN_2 ZN VAV TERM, User-Specified Maximum Flow Fraction during Reheat [], 0.50000
 Component Sizing Information, AirTerminal:SingleDuct:VAV:Reheat, PERIMETER_MID_ZN_2 ZN VAV TERM, Design Size Maximum Flow per Zone Floor Area during Reheat [m3/s-m2], 3.76831E-003
 Component Sizing Information, AirTerminal:SingleDuct:VAV:Reheat, PERIMETER_MID_ZN_2 ZN VAV TERM, Design Size Maximum Reheat Water Flow Rate [m3/s], 3.72193E-003
 Component Sizing Information, AirTerminal:SingleDuct:VAV:Reheat, PERIMETER_MID_ZN_2 ZN VAV TERM, Design Size Reheat Coil Sizing Air Volume Flow Rate [m3/s], 5.19930
 Component Sizing Information, AirTerminal:SingleDuct:VAV:Reheat, PERIMETER_MID_ZN_2 ZN VAV TERM, Design Size Reheat Coil Sizing Inlet Air Temperature [C], 12.80000
 Component Sizing Information, AirTerminal:SingleDuct:VAV:Reheat, PERIMETER_MID_ZN_2 ZN VAV TERM, Design Size Reheat Coil Sizing Inlet Air Humidity Ratio [kgWater/kgDryAir], 8.00000E-003
 Component Sizing Information, Coil:Heating:Water, PERIMETER_MID_ZN_2 ZN RHT COIL, Design Size Rated Capacity [W], 173052.18679
 Component Sizing Information, Coil:Heating:Water, PERIMETER_MID_ZN_2 ZN RHT COIL, Design Size Maximum Water Flow Rate [m3/s], 3.72193E-003
 Component Sizing Information, Coil:Heating:Water, PERIMETER_MID_ZN_2 ZN RHT COIL, Design Size U-Factor Times Area Value [W/K], 3537.84263
Water Heating Coil Capacity Information,Coil:Heating:Water,PERIMETER_MID_ZN_2 ZN RHT COIL,160940.37
 Component Sizing Information, AirTerminal:SingleDuct:VAV:Reheat, PERIMETER_MID_ZN_3 ZN VAV TERM, Design Size Maximum Air Flow Rate [m3/s], 9.79428
 Component Sizing Information, AirTerminal:SingleDuct:VAV:Reheat, PERIMETER_MID_ZN_3 ZN VAV TERM, Design Size Constant Minimum Air Flow Fraction, 0.24384
 Component Sizing Information, AirTerminal:SingleDuct:VAV:Reheat, PERIMETER_MID_ZN_3 ZN VAV TERM, User-Specified Constant Minimum Air Flow Fraction, 0.20000
 Component Sizing Information, AirTerminal:SingleDuct:VAV:Reheat, PERIMETER_MID_ZN_3 ZN VAV TERM, Design Size Minimum Air Flow Rate [m3/s], 1.95886
 Component Sizing Information, AirTerminal:SingleDuct:VAV:Reheat, PERIMETER_MID_ZN_3 ZN VAV TERM, Design Size Maximum Flow Fraction during Reheat [], 0.65023
 Component Sizing Information, AirTerminal:SingleDuct:VAV:Reheat, PERIMETER_MID_ZN_3 ZN VAV TERM, User-Specified Maximum Flow Fraction during Reheat [], 0.50000
 Component Sizing Information, AirTerminal:SingleDuct:VAV:Reheat, PERIMETER_MID_ZN_3 ZN VAV TERM, Design Size Maximum Flow per Zone Floor Area during Reheat [m3/s-m2], 1.56252E-003
 Component Sizing Information, AirTerminal:SingleDuct:VAV:Reheat, PERIMETER_MID_ZN_3 ZN VAV TERM, Design Size Maximum Reheat Water Flow Rate [m3/s], 5.65703E-003
 Component Sizing Information, AirTerminal:SingleDuct:VAV:Reheat, PERIMETER_MID_ZN_3 ZN VAV TERM, Design Size Reheat Coil Sizing Air Volume Flow Rate [m3/s], 7.90223
 Component Sizing Information, AirTerminal:SingleDuct:VAV:Reheat, PERIMETER_MID_ZN_3 ZN VAV TERM, Design Size Reheat Coil Sizing Inlet Air Temperature [C], 12.80000
 Component Sizing Information, AirTerminal:SingleDuct:VAV:Reheat, PERIMETER_MID_ZN_3 ZN VAV TERM, Design Size Reheat Coil Sizing Inlet Air Humidity Ratio [kgWater/kgDryAir], 8.00000E-003
 Component Sizing Information, Coil:Heating:Water, PERIMETER_MID_ZN_3 ZN RHT COIL, Design Size Rated Capacity [W], 263024.99345
 Component Sizing Information, Coil:Heating:Water, PERIMETER_MID_ZN_3 ZN RHT COIL, Design Size Maximum Water Flow Rate [m3/s], 5.65703E-003
 Component Sizing Information, Coil:Heating:Water, PERIMETER_MID_ZN_3 ZN RHT COIL, Design Size U-Factor Times Area Value [W/K], 5377.28461
Water Heating Coil Capacity Information,Coil:Heating:Water,PERIMETER_MID_ZN_3 ZN RHT COIL,244616.03
 Component Sizing Information, AirTerminal:SingleDuct:VAV:Reheat, PERIMETER_MID_ZN_4 ZN VAV TERM, Design Size Maximum Air Flow Rate [m3/s], 16.20793
 Component Sizing Information, AirTerminal:SingleDuct:VAV:Reheat, PERIMETER_MID_ZN_4 ZN VAV TERM, Design Size Constant Minimum Air Flow Fraction, 9.49566E-002
 Component Sizing Information, AirTerminal:SingleDuct:VAV:Reheat, PERIMETER_MID_ZN_4 ZN VAV TERM, User-Specified Constant Minimum Air Flow Fraction, 0.20000
[...]
 Component Sizing Information, AirLoopHVAC:UnitarySystem, DATACENTER_TOP_ZN_6 ZN UNITARY HP, User-Specified Supplemental Heating Coil Nominal Capacity [W], 7365.40912
 Component Sizing Information, AirLoopHVAC:UnitarySystem, DATACENTER_TOP_ZN_6 ZN UNITARY HP, Fraction of Supply Air Flow That Goes Through the Controlling Zone, 1.00000
 Component Sizing Information, Fan:OnOff, DATACENTER_TOP_ZN_6 ZN PSZ-AC DATA CENTER FAN, Design Size Maximum Flow Rate [m3/s], 0.40993
 Component Sizing Information, COIL:HEATING:WATERTOAIRHEATPUMP:EQUATIONFIT, DATACENTER_TOP_ZN_6 ZN PSZ-AC DATA CENTER WATER-TO-AIR HP HTG COIL, Design Size Rated Air Flow Rate [m3/s], 0.40993
 Component Sizing Information, COIL:HEATING:WATERTOAIRHEATPUMP:EQUATIONFIT, DATACENTER_TOP_ZN_6 ZN PSZ-AC DATA CENTER WATER-TO-AIR HP HTG COIL, Design Size Rated Heating Capacity [W], 7365.40912
 Component Sizing Information, COIL:HEATING:WATERTOAIRHEATPUMP:EQUATIONFIT, DATACENTER_TOP_ZN_6 ZN PSZ-AC DATA CENTER WATER-TO-AIR HP HTG COIL, Design Size Rated Water Flow Rate [m3/s], 1.61388E-004
 Component Sizing Information, Coil:Heating:Electric, DATACENTER_TOP_ZN_6 ZN PSZ-AC DATA CENTER ELECTRIC BACKUP HTG COIL, Design Size Nominal Capacity [W], 7365.40912
 Component Sizing Information, Controller:OutdoorAir, VAV_BOT WITH REHEAT OA CONTROLLER, Maximum Outdoor Air Flow Rate [m3/s], 11.23830
 Component Sizing Information, Coil:Cooling:Water, VAV_BOT WITH REHEAT CLG COIL, Design Size Design Coil Load [W], 263517.00481
 Component Sizing Information, Coil:Cooling:Water, VAV_BOT WITH REHEAT CLG COIL, Design Size Design Water Flow Rate [m3/s], 1.11882E-002
 Component Sizing Information, Coil:Cooling:Water, VAV_BOT WITH REHEAT CLG COIL, Design Size Design Air Flow Rate [m3/s], 11.23830
 Component Sizing Information, Coil:Cooling:Water, VAV_BOT WITH REHEAT CLG COIL, Design Size Design Inlet Air Temperature [C], 26.14166
 Component Sizing Information, Coil:Cooling:Water, VAV_BOT WITH REHEAT CLG COIL, Design Size Design Inlet Water Temperature [C], 6.66667
 Component Sizing Information, Coil:Cooling:Water, VAV_BOT WITH REHEAT CLG COIL, Design Size Design Outlet Air Temperature [C], 12.80000
 Component Sizing Information, Coil:Cooling:Water, VAV_BOT WITH REHEAT CLG COIL, Design Size Design Inlet Air Humidity Ratio, 1.02224E-002
 Component Sizing Information, Coil:Cooling:Water, VAV_BOT WITH REHEAT CLG COIL, Design Size Design Outlet Air Humidity Ratio, 8.47862E-003
Water Cooling Coil Capacity Information,Coil:Cooling:Water,VAV_BOT WITH REHEAT CLG COIL,294341.01,198723.51,95617.50,0.68,31280.31,317.26
 Component Sizing Information, Coil:Heating:Water, VAV_BOT WITH REHEAT MAIN HTG COIL, Design Size Rated Capacity [W], 99386.03258
 Component Sizing Information, Coil:Heating:Water, VAV_BOT WITH REHEAT MAIN HTG COIL, Design Size Maximum Water Flow Rate [m3/s], 2.13755E-003
 Component Sizing Information, Coil:Heating:Water, VAV_BOT WITH REHEAT MAIN HTG COIL, Design Size U-Factor Times Area Value [W/K], 1344.65099
Water Heating Coil Capacity Information,Coil:Heating:Water,VAV_BOT WITH REHEAT MAIN HTG COIL,69254.28
 Component Sizing Information, Fan:VariableVolume, VAV_BOT WITH REHEAT FAN, Design Size Maximum Flow Rate [m3/s], 11.23830
 Component Sizing Information, Controller:WaterCoil, VAV_BOT WITH REHEAT CLG COIL CONTROLLER, Maximum Actuated Flow [m3/s], 1.11882E-002
 Component Sizing Information, Controller:WaterCoil, VAV_BOT WITH REHEAT CLG COIL CONTROLLER, Controller Convergence Tolerance, 4.25617E-005
 Component Sizing Information, Controller:WaterCoil, VAV_BOT WITH REHEAT MAIN HTG COIL CONTROLLER, Maximum Actuated Flow [m3/s], 2.13755E-003
 Component Sizing Information, Controller:OutdoorAir, VAV_MID WITH REHEAT OA CONTROLLER, Maximum Outdoor Air Flow Rate [m3/s], 96.40556
 Component Sizing Information, Controller:OutdoorAir, VAV_MID WITH REHEAT OA CONTROLLER, Minimum Outdoor Air Flow Rate [m3/s], 1.65250
 Component Sizing Information, HeatExchanger:AirToAir:SensibleAndLatent, VAV_MID WITH REHEAT ERV, Design Size Nominal Supply Air Flow Rate [m3/s], 1.65250
 Component Sizing Information, Coil:Cooling:Water, VAV_MID WITH REHEAT CLG COIL, Design Size Design Coil Load [W], 1659320.46838
 Component Sizing Information, Coil:Cooling:Water, VAV_MID WITH REHEAT CLG COIL, Design Size Design Water Flow Rate [m3/s], 7.04504E-002
 Component Sizing Information, Coil:Cooling:Water, VAV_MID WITH REHEAT CLG COIL, Design Size Design Air Flow Rate [m3/s], 96.40556
 Component Sizing Information, Coil:Cooling:Water, VAV_MID WITH REHEAT CLG COIL, Design Size Design Inlet Air Temperature [C], 24.08767
 Component Sizing Information, Coil:Cooling:Water, VAV_MID WITH REHEAT CLG COIL, Design Size Design Inlet Water Temperature [C], 6.66667
 Component Sizing Information, Coil:Cooling:Water, VAV_MID WITH REHEAT CLG COIL, Design Size Design Outlet Air Temperature [C], 12.80000
 Component Sizing Information, Coil:Cooling:Water, VAV_MID WITH REHEAT CLG COIL, Design Size Design Inlet Air Humidity Ratio, 8.98175E-003
 Component Sizing Information, Coil:Cooling:Water, VAV_MID WITH REHEAT CLG COIL, Design Size Design Outlet Air Humidity Ratio, 8.47862E-003
Water Cooling Coil Capacity Information,Coil:Cooling:Water,VAV_MID WITH REHEAT CLG COIL,2204085.73,1558555.33,645530.39,0.71,236667.76,2400.42
 Component Sizing Information, Coil:Heating:Water, VAV_MID WITH REHEAT MAIN HTG COIL, Design Size Rated Capacity [W], 392905.22579
 Component Sizing Information, Coil:Heating:Water, VAV_MID WITH REHEAT MAIN HTG COIL, Design Size Maximum Water Flow Rate [m3/s], 8.45044E-003
 Component Sizing Information, Coil:Heating:Water, VAV_MID WITH REHEAT MAIN HTG COIL, Design Size U-Factor Times Area Value [W/K], 5917.02406
Water Heating Coil Capacity Information,Coil:Heating:Water,VAV_MID WITH REHEAT MAIN HTG COIL,319289.21
 Component Sizing Information, Fan:VariableVolume, VAV_MID WITH REHEAT FAN, Design Size Maximum Flow Rate [m3/s], 96.40556
 Component Sizing Information, Controller:WaterCoil, VAV_MID WITH REHEAT CLG COIL CONTROLLER, Maximum Actuated Flow [m3/s], 7.04504E-002
 Component Sizing Information, Controller:WaterCoil, VAV_MID WITH REHEAT CLG COIL CONTROLLER, Controller Convergence Tolerance, 6.75923E-006
 Component Sizing Information, Controller:WaterCoil, VAV_MID WITH REHEAT MAIN HTG COIL CONTROLLER, Maximum Actuated Flow [m3/s], 8.45044E-003
 Component Sizing Information, Controller:OutdoorAir, VAV_TOP WITH REHEAT OA CONTROLLER, Maximum Outdoor Air Flow Rate [m3/s], 10.31900
 Component Sizing Information, Coil:Cooling:Water, VAV_TOP WITH REHEAT CLG COIL, Design Size Design Coil Load [W], 248147.69092
 Component Sizing Information, Coil:Cooling:Water, VAV_TOP WITH REHEAT CLG COIL, Design Size Design Water Flow Rate [m3/s], 1.05357E-002
 Component Sizing Information, Coil:Cooling:Water, VAV_TOP WITH REHEAT CLG COIL, Design Size Design Air Flow Rate [m3/s], 10.31900
 Component Sizing Information, Coil:Cooling:Water, VAV_TOP WITH REHEAT CLG COIL, Design Size Design Inlet Air Temperature [C], 26.29246
 Component Sizing Information, Coil:Cooling:Water, VAV_TOP WITH REHEAT CLG COIL, Design Size Design Inlet Water Temperature [C], 6.66667
 Component Sizing Information, Coil:Cooling:Water, VAV_TOP WITH REHEAT CLG COIL, Design Size Design Outlet Air Temperature [C], 12.80000
 Component Sizing Information, Coil:Cooling:Water, VAV_TOP WITH REHEAT CLG COIL, Design Size Design Inlet Air Humidity Ratio, 1.03618E-002
 Component Sizing Information, Coil:Cooling:Water, VAV_TOP WITH REHEAT CLG COIL, Design Size Design Outlet Air Humidity Ratio, 8.47862E-003
Water Cooling Coil Capacity Information,Coil:Cooling:Water,VAV_TOP WITH REHEAT CLG COIL,272903.31,183673.77,89229.54,0.67,29001.11,294.15
 Component Sizing Information, Coil:Heating:Water, VAV_TOP WITH REHEAT MAIN HTG COIL, Design Size Rated Capacity [W], 95158.26250
 Component Sizing Information, Coil:Heating:Water, VAV_TOP WITH REHEAT MAIN HTG COIL, Design Size Maximum Water Flow Rate [m3/s], 2.04662E-003
 Component Sizing Information, Coil:Heating:Water, VAV_TOP WITH REHEAT MAIN HTG COIL, Design Size U-Factor Times Area Value [W/K], 1278.18216
Water Heating Coil Capacity Information,Coil:Heating:Water,VAV_TOP WITH REHEAT MAIN HTG COIL,65573.08
 Component Sizing Information, Fan:VariableVolume, VAV_TOP WITH REHEAT FAN, Design Size Maximum Flow Rate [m3/s], 10.31900
 Component Sizing Information, Controller:WaterCoil, VAV_TOP WITH REHEAT CLG COIL CONTROLLER, Maximum Actuated Flow [m3/s], 1.05357E-002
 Component Sizing Information, Controller:WaterCoil, VAV_TOP WITH REHEAT CLG COIL CONTROLLER, Controller Convergence Tolerance, 4.51978E-005
 Component Sizing Information, Controller:WaterCoil, VAV_TOP WITH REHEAT MAIN HTG COIL CONTROLLER, Maximum Actuated Flow [m3/s], 2.04662E-003
Water Heater Information,WaterHeater:Mixed,300GAL NATURAL GAS WATER HEATER - 300KBTU/HR 0.806 THERM EFF,1.1356,87921.3,0.516,0.1730
 Component Sizing Information, Pump:VariableSpeed, CHILLED WATER LOOP SECONDARY PUMP, Design Flow Rate [m3/s], 9.69491E-002
 Component Sizing Information, Pump:VariableSpeed, CHILLED WATER LOOP SECONDARY PUMP, Design Power Consumption [W], 17861.64404
 Component Sizing Information, PlantLoop, CHILLED WATER LOOP, Maximum Loop Flow Rate [m3/s], 9.69491E-002
 Component Sizing Information, PlantLoop, CHILLED WATER LOOP, Plant Loop Volume [m3], 11.63389
 Component Sizing Information, Pump:ConstantSpeed, CHILLED WATER LOOP PRIMARY PUMP, Design Flow Rate [m3/s], 9.69491E-002
 Component Sizing Information, Pump:ConstantSpeed, CHILLED WATER LOOP PRIMARY PUMP, Design Power Consumption [W], 6077.24421
 Component Sizing Information, Chiller:Electric:EIR, 90.1-2010 WATERCOOLED  CENTRIFUGAL CHILLER 0 739TONS 0.6KW/TON, Design Size Reference Chilled Water Flow Rate [m3/s], 9.69491E-002
 Component Sizing Information, Chiller:Electric:EIR, 90.1-2010 WATERCOOLED  CENTRIFUGAL CHILLER 0 739TONS 0.6KW/TON, Design Size Reference Capacity [W], 2283407.85326
 Component Sizing Information, Chiller:Electric:EIR, 90.1-2010 WATERCOOLED  CENTRIFUGAL CHILLER 0 739TONS 0.6KW/TON, Design Size Reference Condenser Fluid Flow Rate [m3/s], 0.11428
! <Chiller Standard Rating Information>, Component Type, Component Name, IPLV in SI Units {W/W}, IPLV in IP Units {Btu/W-h}
 Chiller Standard Rating Information, Chiller:Electric:EIR, 90.1-2010 WATERCOOLED  CENTRIFUGAL CHILLER 0 739TONS 0.6KW/TON, 9.51, 32.44
 Component Sizing Information, PlantLoop, CONDENSER WATER LOOP, Maximum Loop Flow Rate [m3/s], 0.11428
 Component Sizing Information, PlantLoop, CONDENSER WATER LOOP, Plant Loop Volume [m3], 13.71316
 Component Sizing Information, Pump:ConstantSpeed, CONDENSER WATER LOOP PUMP, Design Flow Rate [m3/s], 0.11428
 Component Sizing Information, Pump:ConstantSpeed, CONDENSER WATER LOOP PUMP, Design Power Consumption [W], 23129.38495
 Component Sizing Information, CoolingTower:SingleSpeed, CENTRIFUGAL FAN CYCLING OPEN COOLING TOWER 38.2 GPM/HP, Design Water Flow Rate [m3/s], 0.11428
 Component Sizing Information, CoolingTower:SingleSpeed, CENTRIFUGAL FAN CYCLING OPEN COOLING TOWER 38.2 GPM/HP, Design Air Flow Rate [m3/s], 105.00563
 Component Sizing Information, CoolingTower:SingleSpeed, CENTRIFUGAL FAN CYCLING OPEN COOLING TOWER 38.2 GPM/HP, U-Factor Times Area Value at Design Air Flow Rate [W/C], 132989.56829
 Component Sizing Information, CoolingTower:SingleSpeed, CENTRIFUGAL FAN CYCLING OPEN COOLING TOWER 38.2 GPM/HP, Free Convection Regime Air Flow Rate [m3/s], 10.50056
 Component Sizing Information, CoolingTower:SingleSpeed, CENTRIFUGAL FAN CYCLING OPEN COOLING TOWER 38.2 GPM/HP, Free Convection U-Factor Times Area Value [W/K], 13298.95683
 Component Sizing Information, PlantLoop, HEAT PUMP LOOP, Maximum Loop Flow Rate [m3/s], 9.07198E-003
 Component Sizing Information, PlantLoop, HEAT PUMP LOOP, Plant Loop Volume [m3], 1.08864
 Component Sizing Information, Pump:ConstantSpeed, HEAT PUMP LOOP PUMP, Design Flow Rate [m3/s], 9.07198E-003
 Component Sizing Information, Pump:ConstantSpeed, HEAT PUMP LOOP PUMP, Design Power Consumption [W], 2330.62019
 Component Sizing Information, CoolingTower:TwoSpeed, HEAT PUMP LOOP CENTRAL TOWER 20.0 GPM/HP, Design Water Flow Rate [m3/s], 9.07198E-003
 Component Sizing Information, CoolingTower:TwoSpeed, HEAT PUMP LOOP CENTRAL TOWER 20.0 GPM/HP, Air Flow Rate at High Fan Speed [m3/s], 14.54871
 Component Sizing Information, CoolingTower:TwoSpeed, HEAT PUMP LOOP CENTRAL TOWER 20.0 GPM/HP, U-Factor Times Area Value at High Fan Speed [W/C], 5479.63465
 Component Sizing Information, CoolingTower:TwoSpeed, HEAT PUMP LOOP CENTRAL TOWER 20.0 GPM/HP, Low Fan Speed Air Flow Rate [m3/s], 7.27436
 Component Sizing Information, CoolingTower:TwoSpeed, HEAT PUMP LOOP CENTRAL TOWER 20.0 GPM/HP, U-Factor Times Area Value at Low Fan Speed [W/K], 3287.78079
 Component Sizing Information, Boiler:HotWater, HEAT PUMP LOOP SUP BOILER 1425KBTU/HR 0.8 THERMAL EFF, Design Size Nominal Capacity [W], 417087.25572
 Component Sizing Information, Boiler:HotWater, HEAT PUMP LOOP SUP BOILER 1425KBTU/HR 0.8 THERMAL EFF, Design Size Design Water Flow Rate [m3/s], 9.07198E-003
 Component Sizing Information, PlantLoop, HOT WATER LOOP, Maximum Loop Flow Rate [m3/s], 4.55043E-002
 Component Sizing Information, PlantLoop, HOT WATER LOOP, Plant Loop Volume [m3], 5.46051
 Component Sizing Information, Pump:VariableSpeed, HOT WATER LOOP PUMP, Design Flow Rate [m3/s], 4.55043E-002
 Component Sizing Information, Pump:VariableSpeed, HOT WATER LOOP PUMP, Design Power Consumption [W], 11323.28952
 Component Sizing Information, Boiler:HotWater, HOT WATER LOOP BOILER 7217KBTU/HR 0.8 THERMAL EFF, Design Size Nominal Capacity [W], 2123990.77971
 Component Sizing Information, Boiler:HotWater, HOT WATER LOOP BOILER 7217KBTU/HR 0.8 THERMAL EFF, Design Size Design Water Flow Rate [m3/s], 4.55043E-002
 Component Sizing Information, PlantLoop, MAIN SERVICE WATER LOOP, Maximum Loop Flow Rate [m3/s], 4.39108E-004
 Component Sizing Information, PlantLoop, MAIN SERVICE WATER LOOP, Plant Loop Volume [m3], 5.26929E-002
 Component Sizing Information, Pump:ConstantSpeed, SERVICE WATER LOOP PUMP, Design Flow Rate [m3/s], 4.39108E-004
 Component Sizing Information, Pump:ConstantSpeed, SERVICE WATER LOOP PUMP, Design Power Consumption [W], 19.68117
 Component Sizing Information, WaterHeater:Mixed, 300GAL NATURAL GAS WATER HEATER - 300KBTU/HR 0.806 THERM EFF, Use Side Design Flow Rate [m3/s], 4.39108E-004
 Component Sizing Information, PlantEquipmentOperation:ComponentSetPoint, HEAT PUMP LOOP SETPOINT OPERATION SCHEME, Design Water Flow Rate [m3/s] Equipment # 43, 4.39108E-004
 Component Sizing Information, PlantEquipmentOperation:ComponentSetPoint, HEAT PUMP LOOP SETPOINT OPERATION SCHEME, Design Water Flow Rate [m3/s] Equipment # 43, 4.39108E-004
! <Environment>,Environment Name,Environment Type, Start Date, End Date, Start DayOfWeek, Duration {#days}, Source:Start DayOfWeek,  Use Daylight Saving, Use Holidays, Apply Weekend Holiday Rule,  Use Rain Values, Use Snow Values
! <Environment:Special Days>, Special Day Name, Special Day Type, Source, Start Date, Duration {#days}
! <Environment:Daylight Saving>, Daylight Saving Indicator, Source, Start Date, End Date
! <Environment:WarmupDays>, NumberofWarmupDays
Environment,RUN PERIOD 1,WeatherFileRunPeriod,01/01,12/31,Sunday,365,Use RunPeriod Specified Day,No,No,No,Yes,Yes
Environment:Daylight Saving,No,RunPeriod Object
Environment:WarmupDays, 20
! <Tabular Report>,Style,Unit Conversion
Tabular Report,HTML,None
! <Warmup Convergence Information>,Zone Name,Environment Type/Name,Average Warmup Temperature Difference {deltaC},Std Dev Warmup Temperature Difference {deltaC},Max Temperature Pass/Fail Convergence,Min Temperature Pass/Fail Convergence,Average Warmup Load Difference {W},Std Dev Warmup Load Difference {W},Heating Load Pass/Fail Convergence,Cooling Load Pass/Fail Convergence
 Warmup Convergence Information,BASEMENT ZN,RunPeriod: RUN PERIOD 1,1.6487774004E-003,2.1464009954E-003,Pass,Pass,0.0000000000,0.0000000000,Pass,Pass
 Warmup Convergence Information,CORE_BOTTOM ZN,RunPeriod: RUN PERIOD 1,0.1679757744,0.1693664288,Pass,Pass,0.2065854172,0.3982677842,Pass,Pass
 Warmup Convergence Information,CORE_MID ZN,RunPeriod: RUN PERIOD 1,3.0770769980E-002,2.7471406738E-002,Pass,Pass,0.2801365869,0.4411285596,Pass,Pass
 Warmup Convergence Information,CORE_TOP ZN,RunPeriod: RUN PERIOD 1,8.4083568516E-003,1.6982602082E-002,Pass,Pass,0.7041428616,1.8143732983,Pass,Pass
 Warmup Convergence Information,DATACENTER_BASEMENT_ZN_6 ZN,RunPeriod: RUN PERIOD 1,4.0441689310E-004,7.4079274994E-004,Pass,Pass,2.4967836758E-005,3.1434232740E-005,Pass,Pass
 Warmup Convergence Information,DATACENTER_BOT_ZN_6 ZN,RunPeriod: RUN PERIOD 1,5.4376256584E-014,4.8111764606E-014,Pass,Pass,1.5065034045E-003,9.8994804744E-004,Pass,Pass
 Warmup Convergence Information,DATACENTER_MID_ZN_6 ZN,RunPeriod: RUN PERIOD 1,2.8591192607E-003,2.2906941752E-003,Pass,Pass,3.6186189694E-004,2.8180405151E-004,Pass,Pass
 Warmup Convergence Information,DATACENTER_TOP_ZN_6 ZN,RunPeriod: RUN PERIOD 1,1.5863853441E-014,1.2076274220E-014,Pass,Pass,3.2306147838E-003,2.6961094731E-003,Pass,Pass
 Warmup Convergence Information,GROUNDFLOOR_PLENUM ZN,RunPeriod: RUN PERIOD 1,3.2101830634E-002,2.9819051053E-002,Pass,Pass,0.7205863226,1.5879271573,Pass,Pass
 Warmup Convergence Information,MIDFLOOR_PLENUM ZN,RunPeriod: RUN PERIOD 1,2.2415673298E-002,2.1516196469E-002,Pass,Pass,0.5695226050,1.1683545763,Pass,Pass
 Warmup Convergence Information,PERIMETER_BOT_ZN_1 ZN,RunPeriod: RUN PERIOD 1,0.1546889651,0.1530377024,Pass,Pass,0.2136739644,0.3954518524,Pass,Pass
 Warmup Convergence Information,PERIMETER_BOT_ZN_2 ZN,RunPeriod: RUN PERIOD 1,0.1062300712,0.1118821112,Pass,Pass,0.2151272347,0.4002248835,Pass,Pass
 Warmup Convergence Information,PERIMETER_BOT_ZN_3 ZN,RunPeriod: RUN PERIOD 1,6.7132121391E-002,7.0901981705E-002,Pass,Pass,0.2074744775,0.3986551596,Pass,Pass
 Warmup Convergence Information,PERIMETER_BOT_ZN_4 ZN,RunPeriod: RUN PERIOD 1,0.2932784876,0.3494503795,Pass,Pass,0.2042081995,0.3978652301,Pass,Pass
 Warmup Convergence Information,PERIMETER_MID_ZN_1 ZN,RunPeriod: RUN PERIOD 1,0.1478724909,0.2236953689,Pass,Pass,2.2566247972,15.7916479506,Pass,Pass
 Warmup Convergence Information,PERIMETER_MID_ZN_2 ZN,RunPeriod: RUN PERIOD 1,0.1714702880,0.2953843752,Pass,Pass,1.1358804415,4.9125530380,Pass,Pass
 Warmup Convergence Information,PERIMETER_MID_ZN_3 ZN,RunPeriod: RUN PERIOD 1,0.2067874286,0.3286606533,Pass,Pass,4.3290346835,21.1049606658,Pass,Pass
 Warmup Convergence Information,PERIMETER_MID_ZN_4 ZN,RunPeriod: RUN PERIOD 1,0.1311152236,0.2521690933,Pass,Pass,0.8999972157,4.3687359074,Pass,Pass
 Warmup Convergence Information,PERIMETER_TOP_ZN_1 ZN,RunPeriod: RUN PERIOD 1,0.2092984954,0.3511733788,Pass,Pass,4.3117900559,37.5248214489,Pass,Pass
 Warmup Convergence Information,PERIMETER_TOP_ZN_2 ZN,RunPeriod: RUN PERIOD 1,0.2750676059,0.4588799693,Pass,Pass,28.1634250138,227.8719630679,Pass,Pass
 Warmup Convergence Information,PERIMETER_TOP_ZN_3 ZN,RunPeriod: RUN PERIOD 1,0.3328677651,0.4923823866,Pass,Pass,4.9803427353,37.5558402321,Pass,Pass
 Warmup Convergence Information,PERIMETER_TOP_ZN_4 ZN,RunPeriod: RUN PERIOD 1,0.1769146248,0.3212204973,Pass,Pass,0.6781912780,2.5547881122,Pass,Pass
 Warmup Convergence Information,TOPFLOOR_PLENUM ZN,RunPeriod: RUN PERIOD 1,0.1003039352,0.1113966975,Pass,Pass,0.2877829061,0.4347778364,Pass,Pass
! <Program Control Information:Threads/Parallel Sims>, Threading Supported,Maximum Number of Threads, Env Set Threads (OMP_NUM_THREADS), EP Env Set Threads (EP_OMP_NUM_THREADS), IDF Set Threads, Number of Threads Used (Interior Radiant Exchange), Number Nominal Surfaces, Number Parallel Sims
Program Control:Threads/Parallel Sims, No,1, N/A, N/A, N/A, N/A, N/A, N/A
End of Data
